New Line.L1 Bus1=1 Bus2=2 r1=0.092200 x1=0.047000 Phases=1
New Line.L2 Bus1=2 Bus2=3 r1=0.493000 x1=0.251100 Phases=1
New Line.L3 Bus1=3 Bus2=4 r1=0.366000 x1=0.186400 Phases=1
New Line.L4 Bus1=4 Bus2=5 r1=0.381100 x1=0.194100 Phases=1
New Line.L5 Bus1=5 Bus2=6 r1=0.819000 x1=0.707000 Phases=1
New Line.L6 Bus1=6 Bus2=7 r1=0.187200 x1=0.618800 Phases=1
New Line.L7 Bus1=7 Bus2=8 r1=0.711400 x1=0.235100 Phases=1
New Line.L8 Bus1=8 Bus2=9 r1=1.030000 x1=0.740000 Phases=1
New Line.L9 Bus1=9 Bus2=10 r1=1.044000 x1=0.740000 Phases=1
New Line.L10 Bus1=10 Bus2=11 r1=0.196600 x1=0.065000 Phases=1
New Line.L11 Bus1=11 Bus2=12 r1=0.374400 x1=0.123800 Phases=1
New Line.L12 Bus1=12 Bus2=13 r1=1.468000 x1=1.155000 Phases=1
New Line.L13 Bus1=13 Bus2=14 r1=0.541600 x1=0.712900 Phases=1
New Line.L14 Bus1=14 Bus2=15 r1=0.591000 x1=0.526000 Phases=1
New Line.L15 Bus1=15 Bus2=16 r1=0.746300 x1=0.545000 Phases=1
New Line.L16 Bus1=16 Bus2=17 r1=1.289000 x1=1.721000 Phases=1
New Line.L17 Bus1=17 Bus2=18 r1=0.732000 x1=0.574000 Phases=1
New Line.L18 Bus1=2 Bus2=19 r1=0.164000 x1=0.156500 Phases=1
New Line.L19 Bus1=19 Bus2=20 r1=1.504200 x1=1.355400 Phases=1
New Line.L20 Bus1=20 Bus2=21 r1=0.409500 x1=0.478400 Phases=1
New Line.L21 Bus1=21 Bus2=22 r1=0.708900 x1=0.937300 Phases=1
New Line.L22 Bus1=3 Bus2=23 r1=0.451200 x1=0.308300 Phases=1
New Line.L23 Bus1=23 Bus2=24 r1=0.898000 x1=0.709100 Phases=1
New Line.L24 Bus1=24 Bus2=25 r1=0.896000 x1=0.701100 Phases=1
New Line.L25 Bus1=6 Bus2=26 r1=0.203000 x1=0.103400 Phases=1
New Line.L26 Bus1=26 Bus2=27 r1=0.284200 x1=0.144700 Phases=1
New Line.L27 Bus1=27 Bus2=28 r1=1.059000 x1=0.933700 Phases=1
New Line.L28 Bus1=28 Bus2=29 r1=0.804200 x1=0.700600 Phases=1
New Line.L29 Bus1=29 Bus2=30 r1=0.507500 x1=0.258500 Phases=1
New Line.L30 Bus1=30 Bus2=31 r1=0.974400 x1=0.963000 Phases=1
New Line.L31 Bus1=31 Bus2=32 r1=0.310500 x1=0.361900 Phases=1
New Line.L32 Bus1=32 Bus2=33 r1=0.341000 x1=0.530200 Phases=1
!New Line.L33 Bus1=2 Bus2=34 r1=0.014300 x1=0.035700 Phases=1
New Line.L34 Bus1=34 Bus2=35 r1=0.006900 x1=0.001800 Phases=1
New Line.L35 Bus1=35 Bus2=36 r1=0.006900 x1=0.001800 Phases=1
New Line.L36 Bus1=36 Bus2=37 r1=0.006900 x1=0.001800 Phases=1
New Line.L37 Bus1=37 Bus2=38 r1=0.006900 x1=0.001800 Phases=1
New Line.L38 Bus1=38 Bus2=39 r1=0.006900 x1=0.001800 Phases=1
New Line.L39 Bus1=39 Bus2=40 r1=0.006900 x1=0.001800 Phases=1
New Line.L40 Bus1=35 Bus2=41 r1=0.011000 x1=0.001700 Phases=1
New Line.L41 Bus1=36 Bus2=42 r1=0.011000 x1=0.001700 Phases=1
New Line.L42 Bus1=37 Bus2=43 r1=0.011000 x1=0.001700 Phases=1
New Line.L43 Bus1=38 Bus2=44 r1=0.011000 x1=0.001700 Phases=1
New Line.L44 Bus1=39 Bus2=45 r1=0.011000 x1=0.001700 Phases=1
New Line.L45 Bus1=40 Bus2=46 r1=0.011000 x1=0.001700 Phases=1
New Line.L46 Bus1=35 Bus2=47 r1=0.011000 x1=0.001700 Phases=1
New Line.L47 Bus1=36 Bus2=48 r1=0.011000 x1=0.001700 Phases=1
New Line.L48 Bus1=37 Bus2=49 r1=0.011000 x1=0.001700 Phases=1
New Line.L49 Bus1=38 Bus2=50 r1=0.011000 x1=0.001700 Phases=1
New Line.L50 Bus1=39 Bus2=51 r1=0.011000 x1=0.001700 Phases=1
New Line.L51 Bus1=40 Bus2=52 r1=0.011000 x1=0.001700 Phases=1
!New Line.L52 Bus1=3 Bus2=53 r1=0.014300 x1=0.035700 Phases=1
New Line.L53 Bus1=53 Bus2=54 r1=0.006900 x1=0.001800 Phases=1
New Line.L54 Bus1=54 Bus2=55 r1=0.006900 x1=0.001800 Phases=1
New Line.L55 Bus1=55 Bus2=56 r1=0.006900 x1=0.001800 Phases=1
New Line.L56 Bus1=56 Bus2=57 r1=0.006900 x1=0.001800 Phases=1
New Line.L57 Bus1=57 Bus2=58 r1=0.006900 x1=0.001800 Phases=1
New Line.L58 Bus1=54 Bus2=59 r1=0.011000 x1=0.001700 Phases=1
New Line.L59 Bus1=55 Bus2=60 r1=0.011000 x1=0.001700 Phases=1
New Line.L60 Bus1=56 Bus2=61 r1=0.011000 x1=0.001700 Phases=1
New Line.L61 Bus1=57 Bus2=62 r1=0.011000 x1=0.001700 Phases=1
New Line.L62 Bus1=58 Bus2=63 r1=0.011000 x1=0.001700 Phases=1
New Line.L63 Bus1=54 Bus2=64 r1=0.011000 x1=0.001700 Phases=1
New Line.L64 Bus1=55 Bus2=65 r1=0.011000 x1=0.001700 Phases=1
New Line.L65 Bus1=56 Bus2=66 r1=0.011000 x1=0.001700 Phases=1
New Line.L66 Bus1=57 Bus2=67 r1=0.011000 x1=0.001700 Phases=1
New Line.L67 Bus1=58 Bus2=68 r1=0.011000 x1=0.001700 Phases=1
!New Line.L68 Bus1=4 Bus2=69 r1=0.014300 x1=0.035700 Phases=1
New Line.L69 Bus1=69 Bus2=70 r1=0.006900 x1=0.001800 Phases=1
New Line.L70 Bus1=70 Bus2=71 r1=0.006900 x1=0.001800 Phases=1
New Line.L71 Bus1=71 Bus2=72 r1=0.006900 x1=0.001800 Phases=1
New Line.L72 Bus1=72 Bus2=73 r1=0.006900 x1=0.001800 Phases=1
New Line.L73 Bus1=70 Bus2=74 r1=0.011000 x1=0.001700 Phases=1
New Line.L74 Bus1=71 Bus2=75 r1=0.011000 x1=0.001700 Phases=1
New Line.L75 Bus1=72 Bus2=76 r1=0.011000 x1=0.001700 Phases=1
New Line.L76 Bus1=73 Bus2=77 r1=0.011000 x1=0.001700 Phases=1
New Line.L77 Bus1=70 Bus2=78 r1=0.011000 x1=0.001700 Phases=1
New Line.L78 Bus1=71 Bus2=79 r1=0.011000 x1=0.001700 Phases=1
New Line.L79 Bus1=72 Bus2=80 r1=0.011000 x1=0.001700 Phases=1
New Line.L80 Bus1=73 Bus2=81 r1=0.011000 x1=0.001700 Phases=1
!New Line.L81 Bus1=5 Bus2=82 r1=0.014300 x1=0.035700 Phases=1
New Line.L82 Bus1=82 Bus2=83 r1=0.006900 x1=0.001800 Phases=1
New Line.L83 Bus1=83 Bus2=84 r1=0.006900 x1=0.001800 Phases=1
New Line.L84 Bus1=84 Bus2=85 r1=0.006900 x1=0.001800 Phases=1
New Line.L85 Bus1=85 Bus2=86 r1=0.006900 x1=0.001800 Phases=1
New Line.L86 Bus1=83 Bus2=87 r1=0.011000 x1=0.001700 Phases=1
New Line.L87 Bus1=84 Bus2=88 r1=0.011000 x1=0.001700 Phases=1
New Line.L88 Bus1=85 Bus2=89 r1=0.011000 x1=0.001700 Phases=1
New Line.L89 Bus1=86 Bus2=90 r1=0.011000 x1=0.001700 Phases=1
New Line.L90 Bus1=83 Bus2=91 r1=0.011000 x1=0.001700 Phases=1
New Line.L91 Bus1=84 Bus2=92 r1=0.011000 x1=0.001700 Phases=1
New Line.L92 Bus1=85 Bus2=93 r1=0.011000 x1=0.001700 Phases=1
New Line.L93 Bus1=86 Bus2=94 r1=0.011000 x1=0.001700 Phases=1
!New Line.L94 Bus1=6 Bus2=95 r1=0.014300 x1=0.035700 Phases=1
New Line.L95 Bus1=95 Bus2=96 r1=0.006900 x1=0.001800 Phases=1
New Line.L96 Bus1=96 Bus2=97 r1=0.006900 x1=0.001800 Phases=1
New Line.L97 Bus1=97 Bus2=98 r1=0.006900 x1=0.001800 Phases=1
New Line.L98 Bus1=98 Bus2=99 r1=0.006900 x1=0.001800 Phases=1
New Line.L99 Bus1=96 Bus2=100 r1=0.011000 x1=0.001700 Phases=1
New Line.L100 Bus1=97 Bus2=101 r1=0.011000 x1=0.001700 Phases=1
New Line.L101 Bus1=98 Bus2=102 r1=0.011000 x1=0.001700 Phases=1
New Line.L102 Bus1=99 Bus2=103 r1=0.011000 x1=0.001700 Phases=1
New Line.L103 Bus1=96 Bus2=104 r1=0.011000 x1=0.001700 Phases=1
New Line.L104 Bus1=97 Bus2=105 r1=0.011000 x1=0.001700 Phases=1
New Line.L105 Bus1=98 Bus2=106 r1=0.011000 x1=0.001700 Phases=1
New Line.L106 Bus1=99 Bus2=107 r1=0.011000 x1=0.001700 Phases=1
!New Line.L107 Bus1=7 Bus2=108 r1=0.014300 x1=0.035700 Phases=1
New Line.L108 Bus1=108 Bus2=109 r1=0.006900 x1=0.001800 Phases=1
New Line.L109 Bus1=109 Bus2=110 r1=0.006900 x1=0.001800 Phases=1
New Line.L110 Bus1=110 Bus2=111 r1=0.006900 x1=0.001800 Phases=1
New Line.L111 Bus1=111 Bus2=112 r1=0.006900 x1=0.001800 Phases=1
New Line.L112 Bus1=112 Bus2=113 r1=0.006900 x1=0.001800 Phases=1
New Line.L113 Bus1=113 Bus2=114 r1=0.006900 x1=0.001800 Phases=1
New Line.L114 Bus1=109 Bus2=115 r1=0.011000 x1=0.001700 Phases=1
New Line.L115 Bus1=110 Bus2=116 r1=0.011000 x1=0.001700 Phases=1
New Line.L116 Bus1=111 Bus2=117 r1=0.011000 x1=0.001700 Phases=1
New Line.L117 Bus1=112 Bus2=118 r1=0.011000 x1=0.001700 Phases=1
New Line.L118 Bus1=113 Bus2=119 r1=0.011000 x1=0.001700 Phases=1
New Line.L119 Bus1=114 Bus2=120 r1=0.011000 x1=0.001700 Phases=1
New Line.L120 Bus1=109 Bus2=121 r1=0.011000 x1=0.001700 Phases=1
New Line.L121 Bus1=110 Bus2=122 r1=0.011000 x1=0.001700 Phases=1
New Line.L122 Bus1=111 Bus2=123 r1=0.011000 x1=0.001700 Phases=1
New Line.L123 Bus1=112 Bus2=124 r1=0.011000 x1=0.001700 Phases=1
New Line.L124 Bus1=113 Bus2=125 r1=0.011000 x1=0.001700 Phases=1
New Line.L125 Bus1=114 Bus2=126 r1=0.011000 x1=0.001700 Phases=1
!New Line.L126 Bus1=7 Bus2=127 r1=0.014300 x1=0.035700 Phases=1
New Line.L127 Bus1=127 Bus2=128 r1=0.006900 x1=0.001800 Phases=1
New Line.L128 Bus1=128 Bus2=129 r1=0.006900 x1=0.001800 Phases=1
New Line.L129 Bus1=129 Bus2=130 r1=0.006900 x1=0.001800 Phases=1
New Line.L130 Bus1=130 Bus2=131 r1=0.006900 x1=0.001800 Phases=1
New Line.L131 Bus1=131 Bus2=132 r1=0.006900 x1=0.001800 Phases=1
New Line.L132 Bus1=132 Bus2=133 r1=0.006900 x1=0.001800 Phases=1
New Line.L133 Bus1=128 Bus2=134 r1=0.011000 x1=0.001700 Phases=1
New Line.L134 Bus1=129 Bus2=135 r1=0.011000 x1=0.001700 Phases=1
New Line.L135 Bus1=130 Bus2=136 r1=0.011000 x1=0.001700 Phases=1
New Line.L136 Bus1=131 Bus2=137 r1=0.011000 x1=0.001700 Phases=1
New Line.L137 Bus1=132 Bus2=138 r1=0.011000 x1=0.001700 Phases=1
New Line.L138 Bus1=133 Bus2=139 r1=0.011000 x1=0.001700 Phases=1
New Line.L139 Bus1=128 Bus2=140 r1=0.011000 x1=0.001700 Phases=1
New Line.L140 Bus1=129 Bus2=141 r1=0.011000 x1=0.001700 Phases=1
New Line.L141 Bus1=130 Bus2=142 r1=0.011000 x1=0.001700 Phases=1
New Line.L142 Bus1=131 Bus2=143 r1=0.011000 x1=0.001700 Phases=1
New Line.L143 Bus1=132 Bus2=144 r1=0.011000 x1=0.001700 Phases=1
New Line.L144 Bus1=133 Bus2=145 r1=0.011000 x1=0.001700 Phases=1
!New Line.L145 Bus1=8 Bus2=146 r1=0.014300 x1=0.035700 Phases=1
New Line.L146 Bus1=146 Bus2=147 r1=0.006900 x1=0.001800 Phases=1
New Line.L147 Bus1=147 Bus2=148 r1=0.006900 x1=0.001800 Phases=1
New Line.L148 Bus1=148 Bus2=149 r1=0.006900 x1=0.001800 Phases=1
New Line.L149 Bus1=149 Bus2=150 r1=0.006900 x1=0.001800 Phases=1
New Line.L150 Bus1=150 Bus2=151 r1=0.006900 x1=0.001800 Phases=1
New Line.L151 Bus1=151 Bus2=152 r1=0.006900 x1=0.001800 Phases=1
New Line.L152 Bus1=147 Bus2=153 r1=0.011000 x1=0.001700 Phases=1
New Line.L153 Bus1=148 Bus2=154 r1=0.011000 x1=0.001700 Phases=1
New Line.L154 Bus1=149 Bus2=155 r1=0.011000 x1=0.001700 Phases=1
New Line.L155 Bus1=150 Bus2=156 r1=0.011000 x1=0.001700 Phases=1
New Line.L156 Bus1=151 Bus2=157 r1=0.011000 x1=0.001700 Phases=1
New Line.L157 Bus1=152 Bus2=158 r1=0.011000 x1=0.001700 Phases=1
New Line.L158 Bus1=147 Bus2=159 r1=0.011000 x1=0.001700 Phases=1
New Line.L159 Bus1=148 Bus2=160 r1=0.011000 x1=0.001700 Phases=1
New Line.L160 Bus1=149 Bus2=161 r1=0.011000 x1=0.001700 Phases=1
New Line.L161 Bus1=150 Bus2=162 r1=0.011000 x1=0.001700 Phases=1
New Line.L162 Bus1=151 Bus2=163 r1=0.011000 x1=0.001700 Phases=1
New Line.L163 Bus1=152 Bus2=164 r1=0.011000 x1=0.001700 Phases=1
!New Line.L164 Bus1=8 Bus2=165 r1=0.014300 x1=0.035700 Phases=1
New Line.L165 Bus1=165 Bus2=166 r1=0.006900 x1=0.001800 Phases=1
New Line.L166 Bus1=166 Bus2=167 r1=0.006900 x1=0.001800 Phases=1
New Line.L167 Bus1=167 Bus2=168 r1=0.006900 x1=0.001800 Phases=1
New Line.L168 Bus1=168 Bus2=169 r1=0.006900 x1=0.001800 Phases=1
New Line.L169 Bus1=169 Bus2=170 r1=0.006900 x1=0.001800 Phases=1
New Line.L170 Bus1=170 Bus2=171 r1=0.006900 x1=0.001800 Phases=1
New Line.L171 Bus1=166 Bus2=172 r1=0.011000 x1=0.001700 Phases=1
New Line.L172 Bus1=167 Bus2=173 r1=0.011000 x1=0.001700 Phases=1
New Line.L173 Bus1=168 Bus2=174 r1=0.011000 x1=0.001700 Phases=1
New Line.L174 Bus1=169 Bus2=175 r1=0.011000 x1=0.001700 Phases=1
New Line.L175 Bus1=170 Bus2=176 r1=0.011000 x1=0.001700 Phases=1
New Line.L176 Bus1=171 Bus2=177 r1=0.011000 x1=0.001700 Phases=1
New Line.L177 Bus1=166 Bus2=178 r1=0.011000 x1=0.001700 Phases=1
New Line.L178 Bus1=167 Bus2=179 r1=0.011000 x1=0.001700 Phases=1
New Line.L179 Bus1=168 Bus2=180 r1=0.011000 x1=0.001700 Phases=1
New Line.L180 Bus1=169 Bus2=181 r1=0.011000 x1=0.001700 Phases=1
New Line.L181 Bus1=170 Bus2=182 r1=0.011000 x1=0.001700 Phases=1
New Line.L182 Bus1=171 Bus2=183 r1=0.011000 x1=0.001700 Phases=1
!New Line.L183 Bus1=9 Bus2=184 r1=0.014300 x1=0.035700 Phases=1
New Line.L184 Bus1=184 Bus2=185 r1=0.006900 x1=0.001800 Phases=1
New Line.L185 Bus1=185 Bus2=186 r1=0.006900 x1=0.001800 Phases=1
New Line.L186 Bus1=186 Bus2=187 r1=0.006900 x1=0.001800 Phases=1
New Line.L187 Bus1=187 Bus2=188 r1=0.006900 x1=0.001800 Phases=1
New Line.L188 Bus1=185 Bus2=189 r1=0.011000 x1=0.001700 Phases=1
New Line.L189 Bus1=186 Bus2=190 r1=0.011000 x1=0.001700 Phases=1
New Line.L190 Bus1=187 Bus2=191 r1=0.011000 x1=0.001700 Phases=1
New Line.L191 Bus1=188 Bus2=192 r1=0.011000 x1=0.001700 Phases=1
New Line.L192 Bus1=185 Bus2=193 r1=0.011000 x1=0.001700 Phases=1
New Line.L193 Bus1=186 Bus2=194 r1=0.011000 x1=0.001700 Phases=1
New Line.L194 Bus1=187 Bus2=195 r1=0.011000 x1=0.001700 Phases=1
New Line.L195 Bus1=188 Bus2=196 r1=0.011000 x1=0.001700 Phases=1
!New Line.L196 Bus1=10 Bus2=197 r1=0.014300 x1=0.035700 Phases=1
New Line.L197 Bus1=197 Bus2=198 r1=0.006900 x1=0.001800 Phases=1
New Line.L198 Bus1=198 Bus2=199 r1=0.006900 x1=0.001800 Phases=1
New Line.L199 Bus1=199 Bus2=200 r1=0.006900 x1=0.001800 Phases=1
New Line.L200 Bus1=200 Bus2=201 r1=0.006900 x1=0.001800 Phases=1
New Line.L201 Bus1=198 Bus2=202 r1=0.011000 x1=0.001700 Phases=1
New Line.L202 Bus1=199 Bus2=203 r1=0.011000 x1=0.001700 Phases=1
New Line.L203 Bus1=200 Bus2=204 r1=0.011000 x1=0.001700 Phases=1
New Line.L204 Bus1=201 Bus2=205 r1=0.011000 x1=0.001700 Phases=1
New Line.L205 Bus1=198 Bus2=206 r1=0.011000 x1=0.001700 Phases=1
New Line.L206 Bus1=199 Bus2=207 r1=0.011000 x1=0.001700 Phases=1
New Line.L207 Bus1=200 Bus2=208 r1=0.011000 x1=0.001700 Phases=1
New Line.L208 Bus1=201 Bus2=209 r1=0.011000 x1=0.001700 Phases=1
!New Line.L209 Bus1=11 Bus2=210 r1=0.014300 x1=0.035700 Phases=1
New Line.L210 Bus1=210 Bus2=211 r1=0.006900 x1=0.001800 Phases=1
New Line.L211 Bus1=211 Bus2=212 r1=0.006900 x1=0.001800 Phases=1
New Line.L212 Bus1=212 Bus2=213 r1=0.006900 x1=0.001800 Phases=1
New Line.L213 Bus1=211 Bus2=214 r1=0.011000 x1=0.001700 Phases=1
New Line.L214 Bus1=212 Bus2=215 r1=0.011000 x1=0.001700 Phases=1
New Line.L215 Bus1=213 Bus2=216 r1=0.011000 x1=0.001700 Phases=1
New Line.L216 Bus1=211 Bus2=217 r1=0.011000 x1=0.001700 Phases=1
New Line.L217 Bus1=212 Bus2=218 r1=0.011000 x1=0.001700 Phases=1
New Line.L218 Bus1=213 Bus2=219 r1=0.011000 x1=0.001700 Phases=1
!New Line.L219 Bus1=12 Bus2=220 r1=0.014300 x1=0.035700 Phases=1
New Line.L220 Bus1=220 Bus2=221 r1=0.006900 x1=0.001800 Phases=1
New Line.L221 Bus1=221 Bus2=222 r1=0.006900 x1=0.001800 Phases=1
New Line.L222 Bus1=222 Bus2=223 r1=0.006900 x1=0.001800 Phases=1
New Line.L223 Bus1=223 Bus2=224 r1=0.006900 x1=0.001800 Phases=1
New Line.L224 Bus1=221 Bus2=225 r1=0.011000 x1=0.001700 Phases=1
New Line.L225 Bus1=222 Bus2=226 r1=0.011000 x1=0.001700 Phases=1
New Line.L226 Bus1=223 Bus2=227 r1=0.011000 x1=0.001700 Phases=1
New Line.L227 Bus1=224 Bus2=228 r1=0.011000 x1=0.001700 Phases=1
New Line.L228 Bus1=221 Bus2=229 r1=0.011000 x1=0.001700 Phases=1
New Line.L229 Bus1=222 Bus2=230 r1=0.011000 x1=0.001700 Phases=1
New Line.L230 Bus1=223 Bus2=231 r1=0.011000 x1=0.001700 Phases=1
New Line.L231 Bus1=224 Bus2=232 r1=0.011000 x1=0.001700 Phases=1
!New Line.L232 Bus1=13 Bus2=233 r1=0.014300 x1=0.035700 Phases=1
New Line.L233 Bus1=233 Bus2=234 r1=0.006900 x1=0.001800 Phases=1
New Line.L234 Bus1=234 Bus2=235 r1=0.006900 x1=0.001800 Phases=1
New Line.L235 Bus1=235 Bus2=236 r1=0.006900 x1=0.001800 Phases=1
New Line.L236 Bus1=236 Bus2=237 r1=0.006900 x1=0.001800 Phases=1
New Line.L237 Bus1=234 Bus2=238 r1=0.011000 x1=0.001700 Phases=1
New Line.L238 Bus1=235 Bus2=239 r1=0.011000 x1=0.001700 Phases=1
New Line.L239 Bus1=236 Bus2=240 r1=0.011000 x1=0.001700 Phases=1
New Line.L240 Bus1=237 Bus2=241 r1=0.011000 x1=0.001700 Phases=1
New Line.L241 Bus1=234 Bus2=242 r1=0.011000 x1=0.001700 Phases=1
New Line.L242 Bus1=235 Bus2=243 r1=0.011000 x1=0.001700 Phases=1
New Line.L243 Bus1=236 Bus2=244 r1=0.011000 x1=0.001700 Phases=1
New Line.L244 Bus1=237 Bus2=245 r1=0.011000 x1=0.001700 Phases=1
!New Line.L245 Bus1=14 Bus2=246 r1=0.014300 x1=0.035700 Phases=1
New Line.L246 Bus1=246 Bus2=247 r1=0.006900 x1=0.001800 Phases=1
New Line.L247 Bus1=247 Bus2=248 r1=0.006900 x1=0.001800 Phases=1
New Line.L248 Bus1=248 Bus2=249 r1=0.006900 x1=0.001800 Phases=1
New Line.L249 Bus1=249 Bus2=250 r1=0.006900 x1=0.001800 Phases=1
New Line.L250 Bus1=250 Bus2=251 r1=0.006900 x1=0.001800 Phases=1
New Line.L251 Bus1=251 Bus2=252 r1=0.006900 x1=0.001800 Phases=1
New Line.L252 Bus1=247 Bus2=253 r1=0.011000 x1=0.001700 Phases=1
New Line.L253 Bus1=248 Bus2=254 r1=0.011000 x1=0.001700 Phases=1
New Line.L254 Bus1=249 Bus2=255 r1=0.011000 x1=0.001700 Phases=1
New Line.L255 Bus1=250 Bus2=256 r1=0.011000 x1=0.001700 Phases=1
New Line.L256 Bus1=251 Bus2=257 r1=0.011000 x1=0.001700 Phases=1
New Line.L257 Bus1=252 Bus2=258 r1=0.011000 x1=0.001700 Phases=1
New Line.L258 Bus1=247 Bus2=259 r1=0.011000 x1=0.001700 Phases=1
New Line.L259 Bus1=248 Bus2=260 r1=0.011000 x1=0.001700 Phases=1
New Line.L260 Bus1=249 Bus2=261 r1=0.011000 x1=0.001700 Phases=1
New Line.L261 Bus1=250 Bus2=262 r1=0.011000 x1=0.001700 Phases=1
New Line.L262 Bus1=251 Bus2=263 r1=0.011000 x1=0.001700 Phases=1
New Line.L263 Bus1=252 Bus2=264 r1=0.011000 x1=0.001700 Phases=1
!New Line.L264 Bus1=15 Bus2=265 r1=0.014300 x1=0.035700 Phases=1
New Line.L265 Bus1=265 Bus2=266 r1=0.006900 x1=0.001800 Phases=1
New Line.L266 Bus1=266 Bus2=267 r1=0.006900 x1=0.001800 Phases=1
New Line.L267 Bus1=267 Bus2=268 r1=0.006900 x1=0.001800 Phases=1
New Line.L268 Bus1=268 Bus2=269 r1=0.006900 x1=0.001800 Phases=1
New Line.L269 Bus1=266 Bus2=270 r1=0.011000 x1=0.001700 Phases=1
New Line.L270 Bus1=267 Bus2=271 r1=0.011000 x1=0.001700 Phases=1
New Line.L271 Bus1=268 Bus2=272 r1=0.011000 x1=0.001700 Phases=1
New Line.L272 Bus1=269 Bus2=273 r1=0.011000 x1=0.001700 Phases=1
New Line.L273 Bus1=266 Bus2=274 r1=0.011000 x1=0.001700 Phases=1
New Line.L274 Bus1=267 Bus2=275 r1=0.011000 x1=0.001700 Phases=1
New Line.L275 Bus1=268 Bus2=276 r1=0.011000 x1=0.001700 Phases=1
New Line.L276 Bus1=269 Bus2=277 r1=0.011000 x1=0.001700 Phases=1
!New Line.L277 Bus1=16 Bus2=278 r1=0.014300 x1=0.035700 Phases=1
New Line.L278 Bus1=278 Bus2=279 r1=0.006900 x1=0.001800 Phases=1
New Line.L279 Bus1=279 Bus2=280 r1=0.006900 x1=0.001800 Phases=1
New Line.L280 Bus1=280 Bus2=281 r1=0.006900 x1=0.001800 Phases=1
New Line.L281 Bus1=281 Bus2=282 r1=0.006900 x1=0.001800 Phases=1
New Line.L282 Bus1=279 Bus2=283 r1=0.011000 x1=0.001700 Phases=1
New Line.L283 Bus1=280 Bus2=284 r1=0.011000 x1=0.001700 Phases=1
New Line.L284 Bus1=281 Bus2=285 r1=0.011000 x1=0.001700 Phases=1
New Line.L285 Bus1=282 Bus2=286 r1=0.011000 x1=0.001700 Phases=1
New Line.L286 Bus1=279 Bus2=287 r1=0.011000 x1=0.001700 Phases=1
New Line.L287 Bus1=280 Bus2=288 r1=0.011000 x1=0.001700 Phases=1
New Line.L288 Bus1=281 Bus2=289 r1=0.011000 x1=0.001700 Phases=1
New Line.L289 Bus1=282 Bus2=290 r1=0.011000 x1=0.001700 Phases=1
!New Line.L290 Bus1=17 Bus2=291 r1=0.014300 x1=0.035700 Phases=1
New Line.L291 Bus1=291 Bus2=292 r1=0.006900 x1=0.001800 Phases=1
New Line.L292 Bus1=292 Bus2=293 r1=0.006900 x1=0.001800 Phases=1
New Line.L293 Bus1=293 Bus2=294 r1=0.006900 x1=0.001800 Phases=1
New Line.L294 Bus1=294 Bus2=295 r1=0.006900 x1=0.001800 Phases=1
New Line.L295 Bus1=292 Bus2=296 r1=0.011000 x1=0.001700 Phases=1
New Line.L296 Bus1=293 Bus2=297 r1=0.011000 x1=0.001700 Phases=1
New Line.L297 Bus1=294 Bus2=298 r1=0.011000 x1=0.001700 Phases=1
New Line.L298 Bus1=295 Bus2=299 r1=0.011000 x1=0.001700 Phases=1
New Line.L299 Bus1=292 Bus2=300 r1=0.011000 x1=0.001700 Phases=1
New Line.L300 Bus1=293 Bus2=301 r1=0.011000 x1=0.001700 Phases=1
New Line.L301 Bus1=294 Bus2=302 r1=0.011000 x1=0.001700 Phases=1
New Line.L302 Bus1=295 Bus2=303 r1=0.011000 x1=0.001700 Phases=1
!New Line.L303 Bus1=18 Bus2=304 r1=0.014300 x1=0.035700 Phases=1
New Line.L304 Bus1=304 Bus2=305 r1=0.006900 x1=0.001800 Phases=1
New Line.L305 Bus1=305 Bus2=306 r1=0.006900 x1=0.001800 Phases=1
New Line.L306 Bus1=306 Bus2=307 r1=0.006900 x1=0.001800 Phases=1
New Line.L307 Bus1=307 Bus2=308 r1=0.006900 x1=0.001800 Phases=1
New Line.L308 Bus1=308 Bus2=309 r1=0.006900 x1=0.001800 Phases=1
New Line.L309 Bus1=305 Bus2=310 r1=0.011000 x1=0.001700 Phases=1
New Line.L310 Bus1=306 Bus2=311 r1=0.011000 x1=0.001700 Phases=1
New Line.L311 Bus1=307 Bus2=312 r1=0.011000 x1=0.001700 Phases=1
New Line.L312 Bus1=308 Bus2=313 r1=0.011000 x1=0.001700 Phases=1
New Line.L313 Bus1=309 Bus2=314 r1=0.011000 x1=0.001700 Phases=1
New Line.L314 Bus1=305 Bus2=315 r1=0.011000 x1=0.001700 Phases=1
New Line.L315 Bus1=306 Bus2=316 r1=0.011000 x1=0.001700 Phases=1
New Line.L316 Bus1=307 Bus2=317 r1=0.011000 x1=0.001700 Phases=1
New Line.L317 Bus1=308 Bus2=318 r1=0.011000 x1=0.001700 Phases=1
New Line.L318 Bus1=309 Bus2=319 r1=0.011000 x1=0.001700 Phases=1
!New Line.L319 Bus1=19 Bus2=320 r1=0.014300 x1=0.035700 Phases=1
New Line.L320 Bus1=320 Bus2=321 r1=0.006900 x1=0.001800 Phases=1
New Line.L321 Bus1=321 Bus2=322 r1=0.006900 x1=0.001800 Phases=1
New Line.L322 Bus1=322 Bus2=323 r1=0.006900 x1=0.001800 Phases=1
New Line.L323 Bus1=323 Bus2=324 r1=0.006900 x1=0.001800 Phases=1
New Line.L324 Bus1=324 Bus2=325 r1=0.006900 x1=0.001800 Phases=1
New Line.L325 Bus1=321 Bus2=326 r1=0.011000 x1=0.001700 Phases=1
New Line.L326 Bus1=322 Bus2=327 r1=0.011000 x1=0.001700 Phases=1
New Line.L327 Bus1=323 Bus2=328 r1=0.011000 x1=0.001700 Phases=1
New Line.L328 Bus1=324 Bus2=329 r1=0.011000 x1=0.001700 Phases=1
New Line.L329 Bus1=325 Bus2=330 r1=0.011000 x1=0.001700 Phases=1
New Line.L330 Bus1=321 Bus2=331 r1=0.011000 x1=0.001700 Phases=1
New Line.L331 Bus1=322 Bus2=332 r1=0.011000 x1=0.001700 Phases=1
New Line.L332 Bus1=323 Bus2=333 r1=0.011000 x1=0.001700 Phases=1
New Line.L333 Bus1=324 Bus2=334 r1=0.011000 x1=0.001700 Phases=1
New Line.L334 Bus1=325 Bus2=335 r1=0.011000 x1=0.001700 Phases=1
!New Line.L335 Bus1=20 Bus2=336 r1=0.014300 x1=0.035700 Phases=1
New Line.L336 Bus1=336 Bus2=337 r1=0.006900 x1=0.001800 Phases=1
New Line.L337 Bus1=337 Bus2=338 r1=0.006900 x1=0.001800 Phases=1
New Line.L338 Bus1=338 Bus2=339 r1=0.006900 x1=0.001800 Phases=1
New Line.L339 Bus1=339 Bus2=340 r1=0.006900 x1=0.001800 Phases=1
New Line.L340 Bus1=340 Bus2=341 r1=0.006900 x1=0.001800 Phases=1
New Line.L341 Bus1=337 Bus2=342 r1=0.011000 x1=0.001700 Phases=1
New Line.L342 Bus1=338 Bus2=343 r1=0.011000 x1=0.001700 Phases=1
New Line.L343 Bus1=339 Bus2=344 r1=0.011000 x1=0.001700 Phases=1
New Line.L344 Bus1=340 Bus2=345 r1=0.011000 x1=0.001700 Phases=1
New Line.L345 Bus1=341 Bus2=346 r1=0.011000 x1=0.001700 Phases=1
New Line.L346 Bus1=337 Bus2=347 r1=0.011000 x1=0.001700 Phases=1
New Line.L347 Bus1=338 Bus2=348 r1=0.011000 x1=0.001700 Phases=1
New Line.L348 Bus1=339 Bus2=349 r1=0.011000 x1=0.001700 Phases=1
New Line.L349 Bus1=340 Bus2=350 r1=0.011000 x1=0.001700 Phases=1
New Line.L350 Bus1=341 Bus2=351 r1=0.011000 x1=0.001700 Phases=1
!New Line.L351 Bus1=21 Bus2=352 r1=0.014300 x1=0.035700 Phases=1
New Line.L352 Bus1=352 Bus2=353 r1=0.006900 x1=0.001800 Phases=1
New Line.L353 Bus1=353 Bus2=354 r1=0.006900 x1=0.001800 Phases=1
New Line.L354 Bus1=354 Bus2=355 r1=0.006900 x1=0.001800 Phases=1
New Line.L355 Bus1=355 Bus2=356 r1=0.006900 x1=0.001800 Phases=1
New Line.L356 Bus1=356 Bus2=357 r1=0.006900 x1=0.001800 Phases=1
New Line.L357 Bus1=353 Bus2=358 r1=0.011000 x1=0.001700 Phases=1
New Line.L358 Bus1=354 Bus2=359 r1=0.011000 x1=0.001700 Phases=1
New Line.L359 Bus1=355 Bus2=360 r1=0.011000 x1=0.001700 Phases=1
New Line.L360 Bus1=356 Bus2=361 r1=0.011000 x1=0.001700 Phases=1
New Line.L361 Bus1=357 Bus2=362 r1=0.011000 x1=0.001700 Phases=1
New Line.L362 Bus1=353 Bus2=363 r1=0.011000 x1=0.001700 Phases=1
New Line.L363 Bus1=354 Bus2=364 r1=0.011000 x1=0.001700 Phases=1
New Line.L364 Bus1=355 Bus2=365 r1=0.011000 x1=0.001700 Phases=1
New Line.L365 Bus1=356 Bus2=366 r1=0.011000 x1=0.001700 Phases=1
New Line.L366 Bus1=357 Bus2=367 r1=0.011000 x1=0.001700 Phases=1
!New Line.L367 Bus1=22 Bus2=368 r1=0.014300 x1=0.035700 Phases=1
New Line.L368 Bus1=368 Bus2=369 r1=0.006900 x1=0.001800 Phases=1
New Line.L369 Bus1=369 Bus2=370 r1=0.006900 x1=0.001800 Phases=1
New Line.L370 Bus1=370 Bus2=371 r1=0.006900 x1=0.001800 Phases=1
New Line.L371 Bus1=371 Bus2=372 r1=0.006900 x1=0.001800 Phases=1
New Line.L372 Bus1=372 Bus2=373 r1=0.006900 x1=0.001800 Phases=1
New Line.L373 Bus1=369 Bus2=374 r1=0.011000 x1=0.001700 Phases=1
New Line.L374 Bus1=370 Bus2=375 r1=0.011000 x1=0.001700 Phases=1
New Line.L375 Bus1=371 Bus2=376 r1=0.011000 x1=0.001700 Phases=1
New Line.L376 Bus1=372 Bus2=377 r1=0.011000 x1=0.001700 Phases=1
New Line.L377 Bus1=373 Bus2=378 r1=0.011000 x1=0.001700 Phases=1
New Line.L378 Bus1=369 Bus2=379 r1=0.011000 x1=0.001700 Phases=1
New Line.L379 Bus1=370 Bus2=380 r1=0.011000 x1=0.001700 Phases=1
New Line.L380 Bus1=371 Bus2=381 r1=0.011000 x1=0.001700 Phases=1
New Line.L381 Bus1=372 Bus2=382 r1=0.011000 x1=0.001700 Phases=1
New Line.L382 Bus1=373 Bus2=383 r1=0.011000 x1=0.001700 Phases=1
!New Line.L383 Bus1=23 Bus2=384 r1=0.014300 x1=0.035700 Phases=1
New Line.L384 Bus1=384 Bus2=385 r1=0.006900 x1=0.001800 Phases=1
New Line.L385 Bus1=385 Bus2=386 r1=0.006900 x1=0.001800 Phases=1
New Line.L386 Bus1=386 Bus2=387 r1=0.006900 x1=0.001800 Phases=1
New Line.L387 Bus1=387 Bus2=388 r1=0.006900 x1=0.001800 Phases=1
New Line.L388 Bus1=388 Bus2=389 r1=0.006900 x1=0.001800 Phases=1
New Line.L389 Bus1=385 Bus2=390 r1=0.011000 x1=0.001700 Phases=1
New Line.L390 Bus1=386 Bus2=391 r1=0.011000 x1=0.001700 Phases=1
New Line.L391 Bus1=387 Bus2=392 r1=0.011000 x1=0.001700 Phases=1
New Line.L392 Bus1=388 Bus2=393 r1=0.011000 x1=0.001700 Phases=1
New Line.L393 Bus1=389 Bus2=394 r1=0.011000 x1=0.001700 Phases=1
New Line.L394 Bus1=385 Bus2=395 r1=0.011000 x1=0.001700 Phases=1
New Line.L395 Bus1=386 Bus2=396 r1=0.011000 x1=0.001700 Phases=1
New Line.L396 Bus1=387 Bus2=397 r1=0.011000 x1=0.001700 Phases=1
New Line.L397 Bus1=388 Bus2=398 r1=0.011000 x1=0.001700 Phases=1
New Line.L398 Bus1=389 Bus2=399 r1=0.011000 x1=0.001700 Phases=1
!New Line.L399 Bus1=24 Bus2=400 r1=0.014300 x1=0.035700 Phases=1
New Line.L400 Bus1=400 Bus2=401 r1=0.006900 x1=0.001800 Phases=1
New Line.L401 Bus1=401 Bus2=402 r1=0.006900 x1=0.001800 Phases=1
New Line.L402 Bus1=402 Bus2=403 r1=0.006900 x1=0.001800 Phases=1
New Line.L403 Bus1=403 Bus2=404 r1=0.006900 x1=0.001800 Phases=1
New Line.L404 Bus1=404 Bus2=405 r1=0.006900 x1=0.001800 Phases=1
New Line.L405 Bus1=405 Bus2=406 r1=0.006900 x1=0.001800 Phases=1
New Line.L406 Bus1=401 Bus2=407 r1=0.011000 x1=0.001700 Phases=1
New Line.L407 Bus1=402 Bus2=408 r1=0.011000 x1=0.001700 Phases=1
New Line.L408 Bus1=403 Bus2=409 r1=0.011000 x1=0.001700 Phases=1
New Line.L409 Bus1=404 Bus2=410 r1=0.011000 x1=0.001700 Phases=1
New Line.L410 Bus1=405 Bus2=411 r1=0.011000 x1=0.001700 Phases=1
New Line.L411 Bus1=406 Bus2=412 r1=0.011000 x1=0.001700 Phases=1
New Line.L412 Bus1=401 Bus2=413 r1=0.011000 x1=0.001700 Phases=1
New Line.L413 Bus1=402 Bus2=414 r1=0.011000 x1=0.001700 Phases=1
New Line.L414 Bus1=403 Bus2=415 r1=0.011000 x1=0.001700 Phases=1
New Line.L415 Bus1=404 Bus2=416 r1=0.011000 x1=0.001700 Phases=1
New Line.L416 Bus1=405 Bus2=417 r1=0.011000 x1=0.001700 Phases=1
New Line.L417 Bus1=406 Bus2=418 r1=0.011000 x1=0.001700 Phases=1
!New Line.L418 Bus1=24 Bus2=419 r1=0.014300 x1=0.035700 Phases=1
New Line.L419 Bus1=419 Bus2=420 r1=0.006900 x1=0.001800 Phases=1
New Line.L420 Bus1=420 Bus2=421 r1=0.006900 x1=0.001800 Phases=1
New Line.L421 Bus1=421 Bus2=422 r1=0.006900 x1=0.001800 Phases=1
New Line.L422 Bus1=422 Bus2=423 r1=0.006900 x1=0.001800 Phases=1
New Line.L423 Bus1=423 Bus2=424 r1=0.006900 x1=0.001800 Phases=1
New Line.L424 Bus1=424 Bus2=425 r1=0.006900 x1=0.001800 Phases=1
New Line.L425 Bus1=420 Bus2=426 r1=0.011000 x1=0.001700 Phases=1
New Line.L426 Bus1=421 Bus2=427 r1=0.011000 x1=0.001700 Phases=1
New Line.L427 Bus1=422 Bus2=428 r1=0.011000 x1=0.001700 Phases=1
New Line.L428 Bus1=423 Bus2=429 r1=0.011000 x1=0.001700 Phases=1
New Line.L429 Bus1=424 Bus2=430 r1=0.011000 x1=0.001700 Phases=1
New Line.L430 Bus1=425 Bus2=431 r1=0.011000 x1=0.001700 Phases=1
New Line.L431 Bus1=420 Bus2=432 r1=0.011000 x1=0.001700 Phases=1
New Line.L432 Bus1=421 Bus2=433 r1=0.011000 x1=0.001700 Phases=1
New Line.L433 Bus1=422 Bus2=434 r1=0.011000 x1=0.001700 Phases=1
New Line.L434 Bus1=423 Bus2=435 r1=0.011000 x1=0.001700 Phases=1
New Line.L435 Bus1=424 Bus2=436 r1=0.011000 x1=0.001700 Phases=1
New Line.L436 Bus1=425 Bus2=437 r1=0.011000 x1=0.001700 Phases=1
!New Line.L437 Bus1=24 Bus2=438 r1=0.014300 x1=0.035700 Phases=1
New Line.L438 Bus1=438 Bus2=439 r1=0.006900 x1=0.001800 Phases=1
New Line.L439 Bus1=439 Bus2=440 r1=0.006900 x1=0.001800 Phases=1
New Line.L440 Bus1=440 Bus2=441 r1=0.006900 x1=0.001800 Phases=1
New Line.L441 Bus1=441 Bus2=442 r1=0.006900 x1=0.001800 Phases=1
New Line.L442 Bus1=442 Bus2=443 r1=0.006900 x1=0.001800 Phases=1
New Line.L443 Bus1=443 Bus2=444 r1=0.006900 x1=0.001800 Phases=1
New Line.L444 Bus1=439 Bus2=445 r1=0.011000 x1=0.001700 Phases=1
New Line.L445 Bus1=440 Bus2=446 r1=0.011000 x1=0.001700 Phases=1
New Line.L446 Bus1=441 Bus2=447 r1=0.011000 x1=0.001700 Phases=1
New Line.L447 Bus1=442 Bus2=448 r1=0.011000 x1=0.001700 Phases=1
New Line.L448 Bus1=443 Bus2=449 r1=0.011000 x1=0.001700 Phases=1
New Line.L449 Bus1=444 Bus2=450 r1=0.011000 x1=0.001700 Phases=1
New Line.L450 Bus1=439 Bus2=451 r1=0.011000 x1=0.001700 Phases=1
New Line.L451 Bus1=440 Bus2=452 r1=0.011000 x1=0.001700 Phases=1
New Line.L452 Bus1=441 Bus2=453 r1=0.011000 x1=0.001700 Phases=1
New Line.L453 Bus1=442 Bus2=454 r1=0.011000 x1=0.001700 Phases=1
New Line.L454 Bus1=443 Bus2=455 r1=0.011000 x1=0.001700 Phases=1
New Line.L455 Bus1=444 Bus2=456 r1=0.011000 x1=0.001700 Phases=1
!New Line.L456 Bus1=24 Bus2=457 r1=0.014300 x1=0.035700 Phases=1
New Line.L457 Bus1=457 Bus2=458 r1=0.006900 x1=0.001800 Phases=1
New Line.L458 Bus1=458 Bus2=459 r1=0.006900 x1=0.001800 Phases=1
New Line.L459 Bus1=459 Bus2=460 r1=0.006900 x1=0.001800 Phases=1
New Line.L460 Bus1=460 Bus2=461 r1=0.006900 x1=0.001800 Phases=1
New Line.L461 Bus1=461 Bus2=462 r1=0.006900 x1=0.001800 Phases=1
New Line.L462 Bus1=462 Bus2=463 r1=0.006900 x1=0.001800 Phases=1
New Line.L463 Bus1=458 Bus2=464 r1=0.011000 x1=0.001700 Phases=1
New Line.L464 Bus1=459 Bus2=465 r1=0.011000 x1=0.001700 Phases=1
New Line.L465 Bus1=460 Bus2=466 r1=0.011000 x1=0.001700 Phases=1
New Line.L466 Bus1=461 Bus2=467 r1=0.011000 x1=0.001700 Phases=1