New Line.L1 Bus1=1 Bus2=2 r1=0.092200 x1=0.047000 Phases=1
New Line.L2 Bus1=2 Bus2=3 r1=0.493000 x1=0.251100 Phases=1
New Line.L3 Bus1=3 Bus2=4 r1=0.366000 x1=0.186400 Phases=1
New Line.L4 Bus1=4 Bus2=5 r1=0.381100 x1=0.194100 Phases=1
New Line.L5 Bus1=5 Bus2=6 r1=0.819000 x1=0.707000 Phases=1
New Line.L6 Bus1=6 Bus2=7 r1=0.187200 x1=0.618800 Phases=1
New Line.L7 Bus1=7 Bus2=8 r1=0.711400 x1=0.235100 Phases=1
New Line.L8 Bus1=8 Bus2=9 r1=1.030000 x1=0.740000 Phases=1
New Line.L9 Bus1=9 Bus2=10 r1=1.044000 x1=0.740000 Phases=1
New Line.L10 Bus1=10 Bus2=11 r1=0.196600 x1=0.065000 Phases=1
New Line.L11 Bus1=11 Bus2=12 r1=0.374400 x1=0.123800 Phases=1
New Line.L12 Bus1=12 Bus2=13 r1=1.468000 x1=1.155000 Phases=1
New Line.L13 Bus1=13 Bus2=14 r1=0.541600 x1=0.712900 Phases=1
New Line.L14 Bus1=14 Bus2=15 r1=0.591000 x1=0.526000 Phases=1
New Line.L15 Bus1=15 Bus2=16 r1=0.746300 x1=0.545000 Phases=1
New Line.L16 Bus1=16 Bus2=17 r1=1.289000 x1=1.721000 Phases=1
New Line.L17 Bus1=17 Bus2=18 r1=0.732000 x1=0.574000 Phases=1
New Line.L18 Bus1=2 Bus2=19 r1=0.164000 x1=0.156500 Phases=1
New Line.L19 Bus1=19 Bus2=20 r1=1.504200 x1=1.355400 Phases=1
New Line.L20 Bus1=20 Bus2=21 r1=0.409500 x1=0.478400 Phases=1
New Line.L21 Bus1=21 Bus2=22 r1=0.708900 x1=0.937300 Phases=1
New Line.L22 Bus1=3 Bus2=23 r1=0.451200 x1=0.308300 Phases=1
New Line.L23 Bus1=23 Bus2=24 r1=0.898000 x1=0.709100 Phases=1
New Line.L24 Bus1=24 Bus2=25 r1=0.896000 x1=0.701100 Phases=1
New Line.L25 Bus1=6 Bus2=26 r1=0.203000 x1=0.103400 Phases=1
New Line.L26 Bus1=26 Bus2=27 r1=0.284200 x1=0.144700 Phases=1
New Line.L27 Bus1=27 Bus2=28 r1=1.059000 x1=0.933700 Phases=1
New Line.L28 Bus1=28 Bus2=29 r1=0.804200 x1=0.700600 Phases=1
New Line.L29 Bus1=29 Bus2=30 r1=0.507500 x1=0.258500 Phases=1
New Line.L30 Bus1=30 Bus2=31 r1=0.974400 x1=0.963000 Phases=1
New Line.L31 Bus1=31 Bus2=32 r1=0.310500 x1=0.361900 Phases=1
New Line.L32 Bus1=32 Bus2=33 r1=0.341000 x1=0.530200 Phases=1
New Line.L33 Bus1=2 Bus2=34 r1=0.014300 x1=0.035700 Phases=1
New Line.L34 Bus1=34 Bus2=35 r1=0.006900 x1=0.001800 Phases=1
New Line.L35 Bus1=35 Bus2=36 r1=0.006900 x1=0.001800 Phases=1
New Line.L36 Bus1=36 Bus2=37 r1=0.006900 x1=0.001800 Phases=1
New Line.L37 Bus1=37 Bus2=38 r1=0.006900 x1=0.001800 Phases=1
New Line.L38 Bus1=38 Bus2=39 r1=0.006900 x1=0.001800 Phases=1
New Line.L39 Bus1=39 Bus2=40 r1=0.006900 x1=0.001800 Phases=1
New Line.L40 Bus1=35 Bus2=41 r1=0.011000 x1=0.001700 Phases=1
New Line.L41 Bus1=36 Bus2=42 r1=0.011000 x1=0.001700 Phases=1
New Line.L42 Bus1=37 Bus2=43 r1=0.011000 x1=0.001700 Phases=1
New Line.L43 Bus1=38 Bus2=44 r1=0.011000 x1=0.001700 Phases=1
New Line.L44 Bus1=39 Bus2=45 r1=0.011000 x1=0.001700 Phases=1
New Line.L45 Bus1=40 Bus2=46 r1=0.011000 x1=0.001700 Phases=1