! Specifying Loads as Model 1 and 2 type loads. For no CVR, Model 2 loads will be blank
New load.S5P Bus=5.1 Phases=1 Model=1 kV=12.66 kW=0.831 kVAr=0.277 Vminpu=0.90 Vmaxpu=1.10 Daily=LoadShapeLoadDefault
New load.S12P Bus=12.1 Phases=1 Model=1 kV=0.24 kW=0.734 kVAr=0.245 Vminpu=0.90 Vmaxpu=1.10 Daily=LoadShapeLoadDefault
New load.S13P Bus=13.1 Phases=1 Model=1 kV=0.24 kW=0.691 kVAr=0.23 Vminpu=0.90 Vmaxpu=1.10 Daily=LoadShapeLoadDefault
New load.S14P Bus=14.1 Phases=1 Model=1 kV=0.24 kW=0.876 kVAr=0.292 Vminpu=0.90 Vmaxpu=1.10 Daily=LoadShapeLoadDefault
New load.S15P Bus=15.1 Phases=1 Model=1 kV=0.24 kW=0.912 kVAr=0.304 Vminpu=0.90 Vmaxpu=1.10 Daily=LoadShapeLoadDefault