
New Transformer.XFM1 Phases=1 Windings=2 Xhl=5.72  wdg=1 bus=2 conn=wye kv=12.66 kva=70 %r=1.146
~ wdg=2 bus=11 conn=wye kv=0.24 kva=70 %r=1.146