! Specifying Loads as Model 1 and 2 type loads. For no CVR, Model 2 loads will be blank
New load.S5P Bus=5.1 Phases=1 Model=1 kV=0.24 kW=0.831 kVAr=0.277 Vminpu=0.90 Vmaxpu=1.10 Daily=LoadShapeLoadDefault
New load.S6P Bus=6.1 Phases=1 Model=1 kV=0.24 kW=0.734 kVAr=0.245 Vminpu=0.90 Vmaxpu=1.10 Daily=LoadShapeLoadDefault
New load.S7P Bus=7.1 Phases=1 Model=1 kV=0.24 kW=0.691 kVAr=0.23 Vminpu=0.90 Vmaxpu=1.10 Daily=LoadShapeLoadDefault
New load.S8P Bus=8.1 Phases=1 Model=1 kV=0.24 kW=0.876 kVAr=0.292 Vminpu=0.90 Vmaxpu=1.10 Daily=LoadShapeLoadDefault
New load.S9P Bus=9.1 Phases=1 Model=1 kV=0.24 kW=0.912 kVAr=0.304 Vminpu=0.90 Vmaxpu=1.10 Daily=LoadShapeLoadDefault