New Line.L1 Phases=1 Bus1=1 Bus2=2 r1=0.07 x1=0.01
New Line.L2 Phases=1 Bus1=2 Bus2=3 r1=0.07 x1=0.01
New Line.L3 Phases=1 Bus1=3 Bus2=4 r1=0.07 x1=0.01
New Line.L4 Phases=1 Bus1=4 Bus2=5 r1=0.07 x1=0.01
New Line.L5 Phases=1 Bus1=5 Bus2=21 r1=0.07 x1=0.01
New Line.L6 Phases=1 Bus1=5 Bus2=6 r1=0.07 x1=0.01
New Line.L7 Phases=1 Bus1=6 Bus2=7 r1=0.07 x1=0.01
New Line.L8 Phases=1 Bus1=7 Bus2=8 r1=0.07 x1=0.01
New Line.L9 Phases=1 Bus1=8 Bus2=9 r1=0.07 x1=0.01
New Line.L10 Phases=1 Bus1=9 Bus2=10 r1=0.07 x1=0.01
New Line.L11 Phases=1 Bus1=10 Bus2=41 r1=0.07 x1=0.01
New Line.L12 Phases=1 Bus1=10 Bus2=11 r1=0.07 x1=0.01
New Line.L13 Phases=1 Bus1=11 Bus2=12 r1=0.07 x1=0.01
New Line.L14 Phases=1 Bus1=12 Bus2=13 r1=0.07 x1=0.01
New Line.L15 Phases=1 Bus1=13 Bus2=14 r1=0.07 x1=0.01
New Line.L16 Phases=1 Bus1=14 Bus2=15 r1=0.07 x1=0.01
New Line.L17 Phases=1 Bus1=15 Bus2=61 r1=0.07 x1=0.01
New Line.L18 Phases=1 Bus1=15 Bus2=16 r1=0.07 x1=0.01
New Line.L19 Phases=1 Bus1=16 Bus2=17 r1=0.07 x1=0.01
New Line.L20 Phases=1 Bus1=17 Bus2=18 r1=0.07 x1=0.01
New Line.L21 Phases=1 Bus1=18 Bus2=19 r1=0.07 x1=0.01
New Line.L22 Phases=1 Bus1=19 Bus2=20 r1=0.07 x1=0.01
New Line.L23 Phases=1 Bus1=20 Bus2=81 r1=0.07 x1=0.01
New Line.L24 Phases=1 Bus1=21 Bus2=22 r1=0.07 x1=0.01
New Line.L25 Phases=1 Bus1=22 Bus2=23 r1=0.07 x1=0.01
New Line.L26 Phases=1 Bus1=23 Bus2=24 r1=0.07 x1=0.01
New Line.L27 Phases=1 Bus1=24 Bus2=25 r1=0.07 x1=0.01
New Line.L28 Phases=1 Bus1=25 Bus2=26 r1=0.07 x1=0.01
New Line.L29 Phases=1 Bus1=26 Bus2=27 r1=0.07 x1=0.01
New Line.L30 Phases=1 Bus1=27 Bus2=28 r1=0.07 x1=0.01
New Line.L31 Phases=1 Bus1=28 Bus2=29 r1=0.07 x1=0.01
New Line.L32 Phases=1 Bus1=29 Bus2=30 r1=0.07 x1=0.01
New Line.L33 Phases=1 Bus1=30 Bus2=31 r1=0.07 x1=0.01
New Line.L34 Phases=1 Bus1=31 Bus2=32 r1=0.07 x1=0.01
New Line.L35 Phases=1 Bus1=32 Bus2=33 r1=0.07 x1=0.01
New Line.L36 Phases=1 Bus1=33 Bus2=34 r1=0.07 x1=0.01
New Line.L37 Phases=1 Bus1=34 Bus2=35 r1=0.07 x1=0.01
New Line.L38 Phases=1 Bus1=35 Bus2=36 r1=0.07 x1=0.01
New Line.L39 Phases=1 Bus1=36 Bus2=37 r1=0.07 x1=0.01
New Line.L40 Phases=1 Bus1=37 Bus2=38 r1=0.07 x1=0.01
New Line.L41 Phases=1 Bus1=38 Bus2=39 r1=0.07 x1=0.01
New Line.L42 Phases=1 Bus1=39 Bus2=40 r1=0.07 x1=0.01
New Line.L43 Phases=1 Bus1=41 Bus2=42 r1=0.07 x1=0.01
New Line.L44 Phases=1 Bus1=42 Bus2=43 r1=0.07 x1=0.01
New Line.L45 Phases=1 Bus1=43 Bus2=44 r1=0.07 x1=0.01
New Line.L46 Phases=1 Bus1=44 Bus2=45 r1=0.07 x1=0.01
New Line.L47 Phases=1 Bus1=45 Bus2=46 r1=0.07 x1=0.01
New Line.L48 Phases=1 Bus1=46 Bus2=47 r1=0.07 x1=0.01
New Line.L49 Phases=1 Bus1=47 Bus2=48 r1=0.07 x1=0.01
New Line.L50 Phases=1 Bus1=48 Bus2=49 r1=0.07 x1=0.01
New Line.L51 Phases=1 Bus1=49 Bus2=50 r1=0.07 x1=0.01
New Line.L52 Phases=1 Bus1=50 Bus2=51 r1=0.07 x1=0.01
New Line.L53 Phases=1 Bus1=51 Bus2=52 r1=0.07 x1=0.01
New Line.L54 Phases=1 Bus1=52 Bus2=53 r1=0.07 x1=0.01
New Line.L55 Phases=1 Bus1=53 Bus2=54 r1=0.07 x1=0.01
New Line.L56 Phases=1 Bus1=54 Bus2=55 r1=0.07 x1=0.01
New Line.L57 Phases=1 Bus1=55 Bus2=56 r1=0.07 x1=0.01
New Line.L58 Phases=1 Bus1=56 Bus2=57 r1=0.07 x1=0.01
New Line.L59 Phases=1 Bus1=57 Bus2=58 r1=0.07 x1=0.01
New Line.L60 Phases=1 Bus1=58 Bus2=59 r1=0.07 x1=0.01
New Line.L61 Phases=1 Bus1=59 Bus2=60 r1=0.07 x1=0.01
New Line.L62 Phases=1 Bus1=61 Bus2=62 r1=0.07 x1=0.01
New Line.L63 Phases=1 Bus1=62 Bus2=63 r1=0.07 x1=0.01
New Line.L64 Phases=1 Bus1=63 Bus2=64 r1=0.07 x1=0.01
New Line.L65 Phases=1 Bus1=64 Bus2=65 r1=0.07 x1=0.01
New Line.L66 Phases=1 Bus1=65 Bus2=66 r1=0.07 x1=0.01
New Line.L67 Phases=1 Bus1=66 Bus2=67 r1=0.07 x1=0.01
New Line.L68 Phases=1 Bus1=67 Bus2=68 r1=0.07 x1=0.01
New Line.L69 Phases=1 Bus1=68 Bus2=69 r1=0.07 x1=0.01
New Line.L70 Phases=1 Bus1=69 Bus2=70 r1=0.07 x1=0.01
New Line.L71 Phases=1 Bus1=70 Bus2=71 r1=0.07 x1=0.01
New Line.L72 Phases=1 Bus1=71 Bus2=72 r1=0.07 x1=0.01
New Line.L73 Phases=1 Bus1=72 Bus2=73 r1=0.07 x1=0.01
New Line.L74 Phases=1 Bus1=73 Bus2=74 r1=0.07 x1=0.01
New Line.L75 Phases=1 Bus1=74 Bus2=75 r1=0.07 x1=0.01
New Line.L76 Phases=1 Bus1=75 Bus2=76 r1=0.07 x1=0.01
New Line.L77 Phases=1 Bus1=76 Bus2=77 r1=0.07 x1=0.01
New Line.L78 Phases=1 Bus1=77 Bus2=78 r1=0.07 x1=0.01
New Line.L79 Phases=1 Bus1=78 Bus2=79 r1=0.07 x1=0.01
New Line.L80 Phases=1 Bus1=79 Bus2=80 r1=0.07 x1=0.01
New Line.L81 Phases=1 Bus1=81 Bus2=82 r1=0.07 x1=0.01
New Line.L82 Phases=1 Bus1=82 Bus2=83 r1=0.07 x1=0.01
New Line.L83 Phases=1 Bus1=83 Bus2=84 r1=0.07 x1=0.01
New Line.L84 Phases=1 Bus1=84 Bus2=85 r1=0.07 x1=0.01
New Line.L85 Phases=1 Bus1=85 Bus2=86 r1=0.07 x1=0.01
New Line.L86 Phases=1 Bus1=86 Bus2=87 r1=0.07 x1=0.01
New Line.L87 Phases=1 Bus1=87 Bus2=88 r1=0.07 x1=0.01
New Line.L88 Phases=1 Bus1=88 Bus2=89 r1=0.07 x1=0.01
New Line.L89 Phases=1 Bus1=89 Bus2=90 r1=0.07 x1=0.01
New Line.L90 Phases=1 Bus1=90 Bus2=91 r1=0.07 x1=0.01
New Line.L91 Phases=1 Bus1=91 Bus2=92 r1=0.07 x1=0.01
New Line.L92 Phases=1 Bus1=92 Bus2=93 r1=0.07 x1=0.01
New Line.L93 Phases=1 Bus1=93 Bus2=94 r1=0.07 x1=0.01
New Line.L94 Phases=1 Bus1=94 Bus2=95 r1=0.07 x1=0.01
New Line.L95 Phases=1 Bus1=95 Bus2=96 r1=0.07 x1=0.01
New Line.L96 Phases=1 Bus1=96 Bus2=97 r1=0.07 x1=0.01
New Line.L97 Phases=1 Bus1=97 Bus2=98 r1=0.07 x1=0.01
New Line.L98 Phases=1 Bus1=98 Bus2=99 r1=0.07 x1=0.01
New Line.L99 Phases=1 Bus1=99 Bus2=100 r1=0.07 x1=0.01
New Line.L100 Phases=1 Bus1=21 Bus2=101 r1=0.07 x1=0.01
New Line.L101 Phases=1 Bus1=1 Bus2=1002 r1=0.0001 x1=0.0001
New Line.L102 Phases=1 Bus1=2 Bus2=1003 r1=0.0001 x1=0.0001
New Line.L103 Phases=1 Bus1=3 Bus2=1004 r1=0.0001 x1=0.0001
New Line.L104 Phases=1 Bus1=4 Bus2=1005 r1=0.0001 x1=0.0001
New Line.L105 Phases=1 Bus1=5 Bus2=1006 r1=0.0001 x1=0.0001
New Line.L106 Phases=1 Bus1=1 Bus2=2007 r1=0.0001 x1=0.0001
New Line.L107 Phases=1 Bus1=7 Bus2=1008 r1=0.0001 x1=0.0001
New Line.L108 Phases=1 Bus1=8 Bus2=1009 r1=0.0001 x1=0.0001
New Line.L109 Phases=1 Bus1=9 Bus2=1010 r1=0.0001 x1=0.0001
New Line.L110 Phases=1 Bus1=10 Bus2=1011 r1=0.0001 x1=0.0001
New Line.L111 Phases=1 Bus1=1 Bus2=3012 r1=0.0001 x1=0.0001
New Line.L112 Phases=1 Bus1=12 Bus2=1013 r1=0.0001 x1=0.0001
New Line.L113 Phases=1 Bus1=13 Bus2=1014 r1=0.0001 x1=0.0001
New Line.L114 Phases=1 Bus1=14 Bus2=1015 r1=0.0001 x1=0.0001
New Line.L115 Phases=1 Bus1=15 Bus2=1016 r1=0.0001 x1=0.0001
New Line.L116 Phases=1 Bus1=1 Bus2=4017 r1=0.0001 x1=0.0001
New Line.L117 Phases=1 Bus1=17 Bus2=1018 r1=0.0001 x1=0.0001
New Line.L118 Phases=1 Bus1=18 Bus2=1019 r1=0.0001 x1=0.0001
New Line.L119 Phases=1 Bus1=19 Bus2=1020 r1=0.0001 x1=0.0001
New Line.L120 Phases=1 Bus1=20 Bus2=1021 r1=0.0001 x1=0.0001
New Line.L121 Phases=1 Bus1=1 Bus2=5022 r1=0.0001 x1=0.0001
New Line.L122 Phases=1 Bus1=22 Bus2=1023 r1=0.0001 x1=0.0001
New Line.L123 Phases=1 Bus1=23 Bus2=1024 r1=0.0001 x1=0.0001
New Line.L124 Phases=1 Bus1=24 Bus2=1025 r1=0.0001 x1=0.0001
New Line.L125 Phases=1 Bus1=25 Bus2=1026 r1=0.0001 x1=0.0001
New Line.L126 Phases=1 Bus1=1 Bus2=6027 r1=0.0001 x1=0.0001
New Line.L127 Phases=1 Bus1=27 Bus2=1028 r1=0.0001 x1=0.0001
New Line.L128 Phases=1 Bus1=28 Bus2=1029 r1=0.0001 x1=0.0001
New Line.L129 Phases=1 Bus1=29 Bus2=1030 r1=0.0001 x1=0.0001
New Line.L130 Phases=1 Bus1=30 Bus2=1031 r1=0.0001 x1=0.0001
New Line.L131 Phases=1 Bus1=1 Bus2=7032 r1=0.0001 x1=0.0001
New Line.L132 Phases=1 Bus1=32 Bus2=1033 r1=0.0001 x1=0.0001
New Line.L133 Phases=1 Bus1=33 Bus2=1034 r1=0.0001 x1=0.0001
New Line.L134 Phases=1 Bus1=34 Bus2=1035 r1=0.0001 x1=0.0001
New Line.L135 Phases=1 Bus1=35 Bus2=1036 r1=0.0001 x1=0.0001
New Line.L136 Phases=1 Bus1=1 Bus2=8037 r1=0.0001 x1=0.0001
New Line.L137 Phases=1 Bus1=37 Bus2=1038 r1=0.0001 x1=0.0001
New Line.L138 Phases=1 Bus1=38 Bus2=1039 r1=0.0001 x1=0.0001
New Line.L139 Phases=1 Bus1=39 Bus2=1040 r1=0.0001 x1=0.0001
New Line.L140 Phases=1 Bus1=40 Bus2=1041 r1=0.0001 x1=0.0001
New Line.L141 Phases=1 Bus1=1 Bus2=9042 r1=0.0001 x1=0.0001
New Line.L142 Phases=1 Bus1=42 Bus2=1043 r1=0.0001 x1=0.0001
New Line.L143 Phases=1 Bus1=43 Bus2=1044 r1=0.0001 x1=0.0001
New Line.L144 Phases=1 Bus1=44 Bus2=1045 r1=0.0001 x1=0.0001
New Line.L145 Phases=1 Bus1=45 Bus2=1046 r1=0.0001 x1=0.0001
New Line.L146 Phases=1 Bus1=1 Bus2=10047 r1=0.0001 x1=0.0001
New Line.L147 Phases=1 Bus1=47 Bus2=1048 r1=0.0001 x1=0.0001
New Line.L148 Phases=1 Bus1=48 Bus2=1049 r1=0.0001 x1=0.0001
New Line.L149 Phases=1 Bus1=49 Bus2=1050 r1=0.0001 x1=0.0001
New Line.L150 Phases=1 Bus1=50 Bus2=1051 r1=0.0001 x1=0.0001
New Line.L151 Phases=1 Bus1=1 Bus2=11052 r1=0.0001 x1=0.0001
New Line.L152 Phases=1 Bus1=52 Bus2=1053 r1=0.0001 x1=0.0001
New Line.L153 Phases=1 Bus1=53 Bus2=1054 r1=0.0001 x1=0.0001
New Line.L154 Phases=1 Bus1=54 Bus2=1055 r1=0.0001 x1=0.0001
New Line.L155 Phases=1 Bus1=55 Bus2=1056 r1=0.0001 x1=0.0001
New Line.L156 Phases=1 Bus1=1 Bus2=12057 r1=0.0001 x1=0.0001
New Line.L157 Phases=1 Bus1=57 Bus2=1058 r1=0.0001 x1=0.0001
New Line.L158 Phases=1 Bus1=58 Bus2=1059 r1=0.0001 x1=0.0001
New Line.L159 Phases=1 Bus1=59 Bus2=1060 r1=0.0001 x1=0.0001
New Line.L160 Phases=1 Bus1=60 Bus2=1061 r1=0.0001 x1=0.0001
New Line.L161 Phases=1 Bus1=1 Bus2=13062 r1=0.0001 x1=0.0001
New Line.L162 Phases=1 Bus1=62 Bus2=1063 r1=0.0001 x1=0.0001
New Line.L163 Phases=1 Bus1=63 Bus2=1064 r1=0.0001 x1=0.0001
New Line.L164 Phases=1 Bus1=64 Bus2=1065 r1=0.0001 x1=0.0001
New Line.L165 Phases=1 Bus1=65 Bus2=1066 r1=0.0001 x1=0.0001
New Line.L166 Phases=1 Bus1=1 Bus2=14067 r1=0.0001 x1=0.0001
New Line.L167 Phases=1 Bus1=67 Bus2=1068 r1=0.0001 x1=0.0001
New Line.L168 Phases=1 Bus1=68 Bus2=1069 r1=0.0001 x1=0.0001
New Line.L169 Phases=1 Bus1=69 Bus2=1070 r1=0.0001 x1=0.0001
New Line.L170 Phases=1 Bus1=70 Bus2=1071 r1=0.0001 x1=0.0001
New Line.L171 Phases=1 Bus1=1 Bus2=15072 r1=0.0001 x1=0.0001
New Line.L172 Phases=1 Bus1=72 Bus2=1073 r1=0.0001 x1=0.0001
New Line.L173 Phases=1 Bus1=73 Bus2=1074 r1=0.0001 x1=0.0001
New Line.L174 Phases=1 Bus1=74 Bus2=1075 r1=0.0001 x1=0.0001
New Line.L175 Phases=1 Bus1=75 Bus2=1076 r1=0.0001 x1=0.0001
New Line.L176 Phases=1 Bus1=1 Bus2=16077 r1=0.0001 x1=0.0001
New Line.L177 Phases=1 Bus1=77 Bus2=1078 r1=0.0001 x1=0.0001
New Line.L178 Phases=1 Bus1=78 Bus2=1079 r1=0.0001 x1=0.0001
New Line.L179 Phases=1 Bus1=79 Bus2=1080 r1=0.0001 x1=0.0001
New Line.L180 Phases=1 Bus1=80 Bus2=1081 r1=0.0001 x1=0.0001
New Line.L181 Phases=1 Bus1=1 Bus2=17082 r1=0.0001 x1=0.0001
New Line.L182 Phases=1 Bus1=82 Bus2=1083 r1=0.0001 x1=0.0001
New Line.L183 Phases=1 Bus1=83 Bus2=1084 r1=0.0001 x1=0.0001
New Line.L184 Phases=1 Bus1=84 Bus2=1085 r1=0.0001 x1=0.0001
New Line.L185 Phases=1 Bus1=85 Bus2=1086 r1=0.0001 x1=0.0001
New Line.L186 Phases=1 Bus1=1 Bus2=18087 r1=0.0001 x1=0.0001
New Line.L187 Phases=1 Bus1=87 Bus2=1088 r1=0.0001 x1=0.0001
New Line.L188 Phases=1 Bus1=88 Bus2=1089 r1=0.0001 x1=0.0001
New Line.L189 Phases=1 Bus1=89 Bus2=1090 r1=0.0001 x1=0.0001
New Line.L190 Phases=1 Bus1=90 Bus2=1091 r1=0.0001 x1=0.0001
New Line.L191 Phases=1 Bus1=1 Bus2=19092 r1=0.0001 x1=0.0001
New Line.L192 Phases=1 Bus1=92 Bus2=1093 r1=0.0001 x1=0.0001
New Line.L193 Phases=1 Bus1=93 Bus2=1094 r1=0.0001 x1=0.0001
New Line.L194 Phases=1 Bus1=94 Bus2=1095 r1=0.0001 x1=0.0001
New Line.L195 Phases=1 Bus1=95 Bus2=1096 r1=0.0001 x1=0.0001
New Line.L196 Phases=1 Bus1=1 Bus2=20097 r1=0.0001 x1=0.0001
New Line.L197 Phases=1 Bus1=97 Bus2=1098 r1=0.0001 x1=0.0001
New Line.L198 Phases=1 Bus1=98 Bus2=1099 r1=0.0001 x1=0.0001
New Line.L199 Phases=1 Bus1=99 Bus2=1100 r1=0.0001 x1=0.0001
New Line.L200 Phases=1 Bus1=100 Bus2=1101 r1=0.0001 x1=0.0001
New Line.L201 Phases=1 Bus1=1001 Bus2=1002 r1=0.07 x1=0.01
New Line.L202 Phases=1 Bus1=1002 Bus2=1003 r1=0.07 x1=0.01
New Line.L203 Phases=1 Bus1=1003 Bus2=1004 r1=0.07 x1=0.01
New Line.L204 Phases=1 Bus1=1004 Bus2=1005 r1=0.07 x1=0.01
New Line.L205 Phases=1 Bus1=1005 Bus2=1101 r1=0.07 x1=0.01
New Line.L206 Phases=1 Bus1=1005 Bus2=1006 r1=0.07 x1=0.01
New Line.L207 Phases=1 Bus1=1006 Bus2=1007 r1=0.07 x1=0.01
New Line.L208 Phases=1 Bus1=1007 Bus2=1008 r1=0.07 x1=0.01
New Line.L209 Phases=1 Bus1=1008 Bus2=1009 r1=0.07 x1=0.01
New Line.L210 Phases=1 Bus1=1009 Bus2=1010 r1=0.07 x1=0.01
New Line.L211 Phases=1 Bus1=1010 Bus2=1102 r1=0.07 x1=0.01
New Line.L212 Phases=1 Bus1=1010 Bus2=1011 r1=0.07 x1=0.01
New Line.L213 Phases=1 Bus1=1011 Bus2=1012 r1=0.07 x1=0.01
New Line.L214 Phases=1 Bus1=1012 Bus2=1013 r1=0.07 x1=0.01
New Line.L215 Phases=1 Bus1=1013 Bus2=1014 r1=0.07 x1=0.01
New Line.L216 Phases=1 Bus1=1014 Bus2=1015 r1=0.07 x1=0.01
New Line.L217 Phases=1 Bus1=1015 Bus2=1103 r1=0.07 x1=0.01
New Line.L218 Phases=1 Bus1=1015 Bus2=1016 r1=0.07 x1=0.01
New Line.L219 Phases=1 Bus1=1016 Bus2=1017 r1=0.07 x1=0.01
New Line.L220 Phases=1 Bus1=1017 Bus2=1018 r1=0.07 x1=0.01
New Line.L221 Phases=1 Bus1=1018 Bus2=1019 r1=0.07 x1=0.01
New Line.L222 Phases=1 Bus1=1019 Bus2=1020 r1=0.07 x1=0.01
New Line.L223 Phases=1 Bus1=1020 Bus2=1104 r1=0.07 x1=0.01
New Line.L224 Phases=1 Bus1=1020 Bus2=1021 r1=0.07 x1=0.01
New Line.L225 Phases=1 Bus1=1021 Bus2=1022 r1=0.07 x1=0.01
New Line.L226 Phases=1 Bus1=1022 Bus2=1023 r1=0.07 x1=0.01
New Line.L227 Phases=1 Bus1=1023 Bus2=1024 r1=0.07 x1=0.01
New Line.L228 Phases=1 Bus1=1024 Bus2=1025 r1=0.07 x1=0.01
New Line.L229 Phases=1 Bus1=1025 Bus2=1105 r1=0.07 x1=0.01
New Line.L230 Phases=1 Bus1=1025 Bus2=1026 r1=0.07 x1=0.01
New Line.L231 Phases=1 Bus1=1026 Bus2=1027 r1=0.07 x1=0.01
New Line.L232 Phases=1 Bus1=1027 Bus2=1028 r1=0.07 x1=0.01
New Line.L233 Phases=1 Bus1=1028 Bus2=1029 r1=0.07 x1=0.01
New Line.L234 Phases=1 Bus1=1029 Bus2=1030 r1=0.07 x1=0.01
New Line.L235 Phases=1 Bus1=1030 Bus2=1106 r1=0.07 x1=0.01
New Line.L236 Phases=1 Bus1=1030 Bus2=1031 r1=0.07 x1=0.01
New Line.L237 Phases=1 Bus1=1031 Bus2=1032 r1=0.07 x1=0.01
New Line.L238 Phases=1 Bus1=1032 Bus2=1033 r1=0.07 x1=0.01
New Line.L239 Phases=1 Bus1=1033 Bus2=1034 r1=0.07 x1=0.01
New Line.L240 Phases=1 Bus1=1034 Bus2=1035 r1=0.07 x1=0.01
New Line.L241 Phases=1 Bus1=1035 Bus2=1107 r1=0.07 x1=0.01
New Line.L242 Phases=1 Bus1=1035 Bus2=1036 r1=0.07 x1=0.01
New Line.L243 Phases=1 Bus1=1036 Bus2=1037 r1=0.07 x1=0.01
New Line.L244 Phases=1 Bus1=1037 Bus2=1038 r1=0.07 x1=0.01
New Line.L245 Phases=1 Bus1=1038 Bus2=1039 r1=0.07 x1=0.01
New Line.L246 Phases=1 Bus1=1039 Bus2=1040 r1=0.07 x1=0.01
New Line.L247 Phases=1 Bus1=1040 Bus2=1108 r1=0.07 x1=0.01
New Line.L248 Phases=1 Bus1=1040 Bus2=1041 r1=0.07 x1=0.01
New Line.L249 Phases=1 Bus1=1041 Bus2=1042 r1=0.07 x1=0.01
New Line.L250 Phases=1 Bus1=1042 Bus2=1043 r1=0.07 x1=0.01
New Line.L251 Phases=1 Bus1=1043 Bus2=1044 r1=0.07 x1=0.01
New Line.L252 Phases=1 Bus1=1044 Bus2=1045 r1=0.07 x1=0.01
New Line.L253 Phases=1 Bus1=1045 Bus2=1109 r1=0.07 x1=0.01
New Line.L254 Phases=1 Bus1=1045 Bus2=1046 r1=0.07 x1=0.01
New Line.L255 Phases=1 Bus1=1046 Bus2=1047 r1=0.07 x1=0.01
New Line.L256 Phases=1 Bus1=1047 Bus2=1048 r1=0.07 x1=0.01
New Line.L257 Phases=1 Bus1=1048 Bus2=1049 r1=0.07 x1=0.01
New Line.L258 Phases=1 Bus1=1049 Bus2=1050 r1=0.07 x1=0.01
New Line.L259 Phases=1 Bus1=1050 Bus2=1110 r1=0.07 x1=0.01
New Line.L260 Phases=1 Bus1=1050 Bus2=1051 r1=0.07 x1=0.01
New Line.L261 Phases=1 Bus1=1051 Bus2=1052 r1=0.07 x1=0.01
New Line.L262 Phases=1 Bus1=1052 Bus2=1053 r1=0.07 x1=0.01
New Line.L263 Phases=1 Bus1=1053 Bus2=1054 r1=0.07 x1=0.01
New Line.L264 Phases=1 Bus1=1054 Bus2=1055 r1=0.07 x1=0.01
New Line.L265 Phases=1 Bus1=1055 Bus2=1111 r1=0.07 x1=0.01
New Line.L266 Phases=1 Bus1=1055 Bus2=1056 r1=0.07 x1=0.01
New Line.L267 Phases=1 Bus1=1056 Bus2=1057 r1=0.07 x1=0.01
New Line.L268 Phases=1 Bus1=1057 Bus2=1058 r1=0.07 x1=0.01
New Line.L269 Phases=1 Bus1=1058 Bus2=1059 r1=0.07 x1=0.01
New Line.L270 Phases=1 Bus1=1059 Bus2=1060 r1=0.07 x1=0.01
New Line.L271 Phases=1 Bus1=1060 Bus2=1112 r1=0.07 x1=0.01
New Line.L272 Phases=1 Bus1=1060 Bus2=1061 r1=0.07 x1=0.01
New Line.L273 Phases=1 Bus1=1061 Bus2=1062 r1=0.07 x1=0.01
New Line.L274 Phases=1 Bus1=1062 Bus2=1063 r1=0.07 x1=0.01
New Line.L275 Phases=1 Bus1=1063 Bus2=1064 r1=0.07 x1=0.01
New Line.L276 Phases=1 Bus1=1064 Bus2=1065 r1=0.07 x1=0.01
New Line.L277 Phases=1 Bus1=1065 Bus2=1113 r1=0.07 x1=0.01
New Line.L278 Phases=1 Bus1=1065 Bus2=1066 r1=0.07 x1=0.01
New Line.L279 Phases=1 Bus1=1066 Bus2=1067 r1=0.07 x1=0.01
New Line.L280 Phases=1 Bus1=1067 Bus2=1068 r1=0.07 x1=0.01
New Line.L281 Phases=1 Bus1=1068 Bus2=1069 r1=0.07 x1=0.01
New Line.L282 Phases=1 Bus1=1069 Bus2=1070 r1=0.07 x1=0.01
New Line.L283 Phases=1 Bus1=1070 Bus2=1114 r1=0.07 x1=0.01
New Line.L284 Phases=1 Bus1=1070 Bus2=1071 r1=0.07 x1=0.01
New Line.L285 Phases=1 Bus1=1071 Bus2=1072 r1=0.07 x1=0.01
New Line.L286 Phases=1 Bus1=1072 Bus2=1073 r1=0.07 x1=0.01
New Line.L287 Phases=1 Bus1=1073 Bus2=1074 r1=0.07 x1=0.01
New Line.L288 Phases=1 Bus1=1074 Bus2=1075 r1=0.07 x1=0.01
New Line.L289 Phases=1 Bus1=1075 Bus2=1115 r1=0.07 x1=0.01
New Line.L290 Phases=1 Bus1=1075 Bus2=1076 r1=0.07 x1=0.01
New Line.L291 Phases=1 Bus1=1076 Bus2=1077 r1=0.07 x1=0.01
New Line.L292 Phases=1 Bus1=1077 Bus2=1078 r1=0.07 x1=0.01
New Line.L293 Phases=1 Bus1=1078 Bus2=1079 r1=0.07 x1=0.01
New Line.L294 Phases=1 Bus1=1079 Bus2=1080 r1=0.07 x1=0.01
New Line.L295 Phases=1 Bus1=1080 Bus2=1116 r1=0.07 x1=0.01
New Line.L296 Phases=1 Bus1=1080 Bus2=1081 r1=0.07 x1=0.01
New Line.L297 Phases=1 Bus1=1081 Bus2=1082 r1=0.07 x1=0.01
New Line.L298 Phases=1 Bus1=1082 Bus2=1083 r1=0.07 x1=0.01
New Line.L299 Phases=1 Bus1=1083 Bus2=1084 r1=0.07 x1=0.01
New Line.L300 Phases=1 Bus1=1084 Bus2=1085 r1=0.07 x1=0.01
New Line.L301 Phases=1 Bus1=1085 Bus2=1117 r1=0.07 x1=0.01
New Line.L302 Phases=1 Bus1=1085 Bus2=1086 r1=0.07 x1=0.01
New Line.L303 Phases=1 Bus1=1086 Bus2=1087 r1=0.07 x1=0.01
New Line.L304 Phases=1 Bus1=1087 Bus2=1088 r1=0.07 x1=0.01
New Line.L305 Phases=1 Bus1=1088 Bus2=1089 r1=0.07 x1=0.01
New Line.L306 Phases=1 Bus1=1089 Bus2=1090 r1=0.07 x1=0.01
New Line.L307 Phases=1 Bus1=1090 Bus2=1118 r1=0.07 x1=0.01
New Line.L308 Phases=1 Bus1=1090 Bus2=1091 r1=0.07 x1=0.01
New Line.L309 Phases=1 Bus1=1091 Bus2=1092 r1=0.07 x1=0.01
New Line.L310 Phases=1 Bus1=1092 Bus2=1093 r1=0.07 x1=0.01
New Line.L311 Phases=1 Bus1=1093 Bus2=1094 r1=0.07 x1=0.01
New Line.L312 Phases=1 Bus1=1094 Bus2=1095 r1=0.07 x1=0.01
New Line.L313 Phases=1 Bus1=1095 Bus2=1119 r1=0.07 x1=0.01
New Line.L314 Phases=1 Bus1=1095 Bus2=1096 r1=0.07 x1=0.01
New Line.L315 Phases=1 Bus1=1096 Bus2=1097 r1=0.07 x1=0.01
New Line.L316 Phases=1 Bus1=1097 Bus2=1098 r1=0.07 x1=0.01
New Line.L317 Phases=1 Bus1=1098 Bus2=1099 r1=0.07 x1=0.01
New Line.L318 Phases=1 Bus1=1099 Bus2=1100 r1=0.07 x1=0.01
New Line.L319 Phases=1 Bus1=1100 Bus2=1120 r1=0.07 x1=0.01
New Line.L320 Phases=1 Bus1=2001 Bus2=2002 r1=0.07 x1=0.01
New Line.L321 Phases=1 Bus1=2002 Bus2=2003 r1=0.07 x1=0.01
New Line.L322 Phases=1 Bus1=2003 Bus2=2004 r1=0.07 x1=0.01
New Line.L323 Phases=1 Bus1=2004 Bus2=2005 r1=0.07 x1=0.01
New Line.L324 Phases=1 Bus1=2005 Bus2=2021 r1=0.07 x1=0.01
New Line.L325 Phases=1 Bus1=2005 Bus2=2006 r1=0.07 x1=0.01
New Line.L326 Phases=1 Bus1=2006 Bus2=2007 r1=0.07 x1=0.01
New Line.L327 Phases=1 Bus1=2007 Bus2=2008 r1=0.07 x1=0.01
New Line.L328 Phases=1 Bus1=2008 Bus2=2009 r1=0.07 x1=0.01
New Line.L329 Phases=1 Bus1=2009 Bus2=2010 r1=0.07 x1=0.01
New Line.L330 Phases=1 Bus1=2010 Bus2=2041 r1=0.07 x1=0.01
New Line.L331 Phases=1 Bus1=2010 Bus2=2011 r1=0.07 x1=0.01
New Line.L332 Phases=1 Bus1=2011 Bus2=2012 r1=0.07 x1=0.01
New Line.L333 Phases=1 Bus1=2012 Bus2=2013 r1=0.07 x1=0.01
New Line.L334 Phases=1 Bus1=2013 Bus2=2014 r1=0.07 x1=0.01
New Line.L335 Phases=1 Bus1=2014 Bus2=2015 r1=0.07 x1=0.01
New Line.L336 Phases=1 Bus1=2015 Bus2=2061 r1=0.07 x1=0.01
New Line.L337 Phases=1 Bus1=2015 Bus2=2016 r1=0.07 x1=0.01
New Line.L338 Phases=1 Bus1=2016 Bus2=2017 r1=0.07 x1=0.01
New Line.L339 Phases=1 Bus1=2017 Bus2=2018 r1=0.07 x1=0.01
New Line.L340 Phases=1 Bus1=2018 Bus2=2019 r1=0.07 x1=0.01
New Line.L341 Phases=1 Bus1=2019 Bus2=2020 r1=0.07 x1=0.01
New Line.L342 Phases=1 Bus1=2020 Bus2=2081 r1=0.07 x1=0.01
New Line.L343 Phases=1 Bus1=2021 Bus2=2022 r1=0.07 x1=0.01
New Line.L344 Phases=1 Bus1=2022 Bus2=2023 r1=0.07 x1=0.01
New Line.L345 Phases=1 Bus1=2023 Bus2=2024 r1=0.07 x1=0.01
New Line.L346 Phases=1 Bus1=2024 Bus2=2025 r1=0.07 x1=0.01
New Line.L347 Phases=1 Bus1=2025 Bus2=2026 r1=0.07 x1=0.01
New Line.L348 Phases=1 Bus1=2026 Bus2=2027 r1=0.07 x1=0.01
New Line.L349 Phases=1 Bus1=2027 Bus2=2028 r1=0.07 x1=0.01
New Line.L350 Phases=1 Bus1=2028 Bus2=2029 r1=0.07 x1=0.01
New Line.L351 Phases=1 Bus1=2029 Bus2=2030 r1=0.07 x1=0.01
New Line.L352 Phases=1 Bus1=2030 Bus2=2031 r1=0.07 x1=0.01
New Line.L353 Phases=1 Bus1=2031 Bus2=2032 r1=0.07 x1=0.01
New Line.L354 Phases=1 Bus1=2032 Bus2=2033 r1=0.07 x1=0.01
New Line.L355 Phases=1 Bus1=2033 Bus2=2034 r1=0.07 x1=0.01
New Line.L356 Phases=1 Bus1=2034 Bus2=2035 r1=0.07 x1=0.01
New Line.L357 Phases=1 Bus1=2035 Bus2=2036 r1=0.07 x1=0.01
New Line.L358 Phases=1 Bus1=2036 Bus2=2037 r1=0.07 x1=0.01
New Line.L359 Phases=1 Bus1=2037 Bus2=2038 r1=0.07 x1=0.01
New Line.L360 Phases=1 Bus1=2038 Bus2=2039 r1=0.07 x1=0.01
New Line.L361 Phases=1 Bus1=2039 Bus2=2040 r1=0.07 x1=0.01
New Line.L362 Phases=1 Bus1=2041 Bus2=2042 r1=0.07 x1=0.01
New Line.L363 Phases=1 Bus1=2042 Bus2=2043 r1=0.07 x1=0.01
New Line.L364 Phases=1 Bus1=2043 Bus2=2044 r1=0.07 x1=0.01
New Line.L365 Phases=1 Bus1=2044 Bus2=2045 r1=0.07 x1=0.01
New Line.L366 Phases=1 Bus1=2045 Bus2=2046 r1=0.07 x1=0.01
New Line.L367 Phases=1 Bus1=2046 Bus2=2047 r1=0.07 x1=0.01
New Line.L368 Phases=1 Bus1=2047 Bus2=2048 r1=0.07 x1=0.01
New Line.L369 Phases=1 Bus1=2048 Bus2=2049 r1=0.07 x1=0.01
New Line.L370 Phases=1 Bus1=2049 Bus2=2050 r1=0.07 x1=0.01
New Line.L371 Phases=1 Bus1=2050 Bus2=2051 r1=0.07 x1=0.01
New Line.L372 Phases=1 Bus1=2051 Bus2=2052 r1=0.07 x1=0.01
New Line.L373 Phases=1 Bus1=2052 Bus2=2053 r1=0.07 x1=0.01
New Line.L374 Phases=1 Bus1=2053 Bus2=2054 r1=0.07 x1=0.01
New Line.L375 Phases=1 Bus1=2054 Bus2=2055 r1=0.07 x1=0.01
New Line.L376 Phases=1 Bus1=2055 Bus2=2056 r1=0.07 x1=0.01
New Line.L377 Phases=1 Bus1=2056 Bus2=2057 r1=0.07 x1=0.01
New Line.L378 Phases=1 Bus1=2057 Bus2=2058 r1=0.07 x1=0.01
New Line.L379 Phases=1 Bus1=2058 Bus2=2059 r1=0.07 x1=0.01
New Line.L380 Phases=1 Bus1=2059 Bus2=2060 r1=0.07 x1=0.01
New Line.L381 Phases=1 Bus1=2061 Bus2=2062 r1=0.07 x1=0.01
New Line.L382 Phases=1 Bus1=2062 Bus2=2063 r1=0.07 x1=0.01
New Line.L383 Phases=1 Bus1=2063 Bus2=2064 r1=0.07 x1=0.01
New Line.L384 Phases=1 Bus1=2064 Bus2=2065 r1=0.07 x1=0.01
New Line.L385 Phases=1 Bus1=2065 Bus2=2066 r1=0.07 x1=0.01
New Line.L386 Phases=1 Bus1=2066 Bus2=2067 r1=0.07 x1=0.01
New Line.L387 Phases=1 Bus1=2067 Bus2=2068 r1=0.07 x1=0.01
New Line.L388 Phases=1 Bus1=2068 Bus2=2069 r1=0.07 x1=0.01
New Line.L389 Phases=1 Bus1=2069 Bus2=2070 r1=0.07 x1=0.01
New Line.L390 Phases=1 Bus1=2070 Bus2=2071 r1=0.07 x1=0.01
New Line.L391 Phases=1 Bus1=2071 Bus2=2072 r1=0.07 x1=0.01
New Line.L392 Phases=1 Bus1=2072 Bus2=2073 r1=0.07 x1=0.01
New Line.L393 Phases=1 Bus1=2073 Bus2=2074 r1=0.07 x1=0.01
New Line.L394 Phases=1 Bus1=2074 Bus2=2075 r1=0.07 x1=0.01
New Line.L395 Phases=1 Bus1=2075 Bus2=2076 r1=0.07 x1=0.01
New Line.L396 Phases=1 Bus1=2076 Bus2=2077 r1=0.07 x1=0.01
New Line.L397 Phases=1 Bus1=2077 Bus2=2078 r1=0.07 x1=0.01
New Line.L398 Phases=1 Bus1=2078 Bus2=2079 r1=0.07 x1=0.01
New Line.L399 Phases=1 Bus1=2079 Bus2=2080 r1=0.07 x1=0.01
New Line.L400 Phases=1 Bus1=2081 Bus2=2082 r1=0.07 x1=0.01
New Line.L401 Phases=1 Bus1=2082 Bus2=2083 r1=0.07 x1=0.01
New Line.L402 Phases=1 Bus1=2083 Bus2=2084 r1=0.07 x1=0.01
New Line.L403 Phases=1 Bus1=2084 Bus2=2085 r1=0.07 x1=0.01
New Line.L404 Phases=1 Bus1=2085 Bus2=2086 r1=0.07 x1=0.01
New Line.L405 Phases=1 Bus1=2086 Bus2=2087 r1=0.07 x1=0.01
New Line.L406 Phases=1 Bus1=2087 Bus2=2088 r1=0.07 x1=0.01
New Line.L407 Phases=1 Bus1=2088 Bus2=2089 r1=0.07 x1=0.01
New Line.L408 Phases=1 Bus1=2089 Bus2=2090 r1=0.07 x1=0.01
New Line.L409 Phases=1 Bus1=2090 Bus2=2091 r1=0.07 x1=0.01
New Line.L410 Phases=1 Bus1=2091 Bus2=2092 r1=0.07 x1=0.01
New Line.L411 Phases=1 Bus1=2092 Bus2=2093 r1=0.07 x1=0.01
New Line.L412 Phases=1 Bus1=2093 Bus2=2094 r1=0.07 x1=0.01
New Line.L413 Phases=1 Bus1=2094 Bus2=2095 r1=0.07 x1=0.01
New Line.L414 Phases=1 Bus1=2095 Bus2=2096 r1=0.07 x1=0.01
New Line.L415 Phases=1 Bus1=2096 Bus2=2097 r1=0.07 x1=0.01
New Line.L416 Phases=1 Bus1=2097 Bus2=2098 r1=0.07 x1=0.01
New Line.L417 Phases=1 Bus1=2098 Bus2=2099 r1=0.07 x1=0.01
New Line.L418 Phases=1 Bus1=2099 Bus2=2100 r1=0.07 x1=0.01
New Line.L419 Phases=1 Bus1=2021 Bus2=2101 r1=0.07 x1=0.01
New Line.L420 Phases=1 Bus1=3001 Bus2=3002 r1=0.07 x1=0.01
New Line.L421 Phases=1 Bus1=3002 Bus2=3003 r1=0.07 x1=0.01
New Line.L422 Phases=1 Bus1=3003 Bus2=3004 r1=0.07 x1=0.01
New Line.L423 Phases=1 Bus1=3004 Bus2=3005 r1=0.07 x1=0.01
New Line.L424 Phases=1 Bus1=3005 Bus2=3021 r1=0.07 x1=0.01
New Line.L425 Phases=1 Bus1=3005 Bus2=3006 r1=0.07 x1=0.01
New Line.L426 Phases=1 Bus1=3006 Bus2=3007 r1=0.07 x1=0.01
New Line.L427 Phases=1 Bus1=3007 Bus2=3008 r1=0.07 x1=0.01
New Line.L428 Phases=1 Bus1=3008 Bus2=3009 r1=0.07 x1=0.01
New Line.L429 Phases=1 Bus1=3009 Bus2=3010 r1=0.07 x1=0.01
New Line.L430 Phases=1 Bus1=3010 Bus2=3041 r1=0.07 x1=0.01
New Line.L431 Phases=1 Bus1=3010 Bus2=3011 r1=0.07 x1=0.01
New Line.L432 Phases=1 Bus1=3011 Bus2=3012 r1=0.07 x1=0.01
New Line.L433 Phases=1 Bus1=3012 Bus2=3013 r1=0.07 x1=0.01
New Line.L434 Phases=1 Bus1=3013 Bus2=3014 r1=0.07 x1=0.01
New Line.L435 Phases=1 Bus1=3014 Bus2=3015 r1=0.07 x1=0.01
New Line.L436 Phases=1 Bus1=3015 Bus2=3061 r1=0.07 x1=0.01
New Line.L437 Phases=1 Bus1=3015 Bus2=3016 r1=0.07 x1=0.01
New Line.L438 Phases=1 Bus1=3016 Bus2=3017 r1=0.07 x1=0.01
New Line.L439 Phases=1 Bus1=3017 Bus2=3018 r1=0.07 x1=0.01
New Line.L440 Phases=1 Bus1=3018 Bus2=3019 r1=0.07 x1=0.01
New Line.L441 Phases=1 Bus1=3019 Bus2=3020 r1=0.07 x1=0.01
New Line.L442 Phases=1 Bus1=3020 Bus2=3081 r1=0.07 x1=0.01
New Line.L443 Phases=1 Bus1=3021 Bus2=3022 r1=0.07 x1=0.01
New Line.L444 Phases=1 Bus1=3022 Bus2=3023 r1=0.07 x1=0.01
New Line.L445 Phases=1 Bus1=3023 Bus2=3024 r1=0.07 x1=0.01
New Line.L446 Phases=1 Bus1=3024 Bus2=3025 r1=0.07 x1=0.01
New Line.L447 Phases=1 Bus1=3025 Bus2=3026 r1=0.07 x1=0.01
New Line.L448 Phases=1 Bus1=3026 Bus2=3027 r1=0.07 x1=0.01
New Line.L449 Phases=1 Bus1=3027 Bus2=3028 r1=0.07 x1=0.01
New Line.L450 Phases=1 Bus1=3028 Bus2=3029 r1=0.07 x1=0.01
New Line.L451 Phases=1 Bus1=3029 Bus2=3030 r1=0.07 x1=0.01
New Line.L452 Phases=1 Bus1=3030 Bus2=3031 r1=0.07 x1=0.01
New Line.L453 Phases=1 Bus1=3031 Bus2=3032 r1=0.07 x1=0.01
New Line.L454 Phases=1 Bus1=3032 Bus2=3033 r1=0.07 x1=0.01
New Line.L455 Phases=1 Bus1=3033 Bus2=3034 r1=0.07 x1=0.01
New Line.L456 Phases=1 Bus1=3034 Bus2=3035 r1=0.07 x1=0.01
New Line.L457 Phases=1 Bus1=3035 Bus2=3036 r1=0.07 x1=0.01
New Line.L458 Phases=1 Bus1=3036 Bus2=3037 r1=0.07 x1=0.01
New Line.L459 Phases=1 Bus1=3037 Bus2=3038 r1=0.07 x1=0.01
New Line.L460 Phases=1 Bus1=3038 Bus2=3039 r1=0.07 x1=0.01
New Line.L461 Phases=1 Bus1=3039 Bus2=3040 r1=0.07 x1=0.01
New Line.L462 Phases=1 Bus1=3041 Bus2=3042 r1=0.07 x1=0.01
New Line.L463 Phases=1 Bus1=3042 Bus2=3043 r1=0.07 x1=0.01
New Line.L464 Phases=1 Bus1=3043 Bus2=3044 r1=0.07 x1=0.01
New Line.L465 Phases=1 Bus1=3044 Bus2=3045 r1=0.07 x1=0.01
New Line.L466 Phases=1 Bus1=3045 Bus2=3046 r1=0.07 x1=0.01
New Line.L467 Phases=1 Bus1=3046 Bus2=3047 r1=0.07 x1=0.01
New Line.L468 Phases=1 Bus1=3047 Bus2=3048 r1=0.07 x1=0.01
New Line.L469 Phases=1 Bus1=3048 Bus2=3049 r1=0.07 x1=0.01
New Line.L470 Phases=1 Bus1=3049 Bus2=3050 r1=0.07 x1=0.01
New Line.L471 Phases=1 Bus1=3050 Bus2=3051 r1=0.07 x1=0.01
New Line.L472 Phases=1 Bus1=3051 Bus2=3052 r1=0.07 x1=0.01
New Line.L473 Phases=1 Bus1=3052 Bus2=3053 r1=0.07 x1=0.01
New Line.L474 Phases=1 Bus1=3053 Bus2=3054 r1=0.07 x1=0.01
New Line.L475 Phases=1 Bus1=3054 Bus2=3055 r1=0.07 x1=0.01
New Line.L476 Phases=1 Bus1=3055 Bus2=3056 r1=0.07 x1=0.01
New Line.L477 Phases=1 Bus1=3056 Bus2=3057 r1=0.07 x1=0.01
New Line.L478 Phases=1 Bus1=3057 Bus2=3058 r1=0.07 x1=0.01
New Line.L479 Phases=1 Bus1=3058 Bus2=3059 r1=0.07 x1=0.01
New Line.L480 Phases=1 Bus1=3059 Bus2=3060 r1=0.07 x1=0.01
New Line.L481 Phases=1 Bus1=3061 Bus2=3062 r1=0.07 x1=0.01
New Line.L482 Phases=1 Bus1=3062 Bus2=3063 r1=0.07 x1=0.01
New Line.L483 Phases=1 Bus1=3063 Bus2=3064 r1=0.07 x1=0.01
New Line.L484 Phases=1 Bus1=3064 Bus2=3065 r1=0.07 x1=0.01
New Line.L485 Phases=1 Bus1=3065 Bus2=3066 r1=0.07 x1=0.01
New Line.L486 Phases=1 Bus1=3066 Bus2=3067 r1=0.07 x1=0.01
New Line.L487 Phases=1 Bus1=3067 Bus2=3068 r1=0.07 x1=0.01
New Line.L488 Phases=1 Bus1=3068 Bus2=3069 r1=0.07 x1=0.01
New Line.L489 Phases=1 Bus1=3069 Bus2=3070 r1=0.07 x1=0.01
New Line.L490 Phases=1 Bus1=3070 Bus2=3071 r1=0.07 x1=0.01
New Line.L491 Phases=1 Bus1=3071 Bus2=3072 r1=0.07 x1=0.01
New Line.L492 Phases=1 Bus1=3072 Bus2=3073 r1=0.07 x1=0.01
New Line.L493 Phases=1 Bus1=3073 Bus2=3074 r1=0.07 x1=0.01
New Line.L494 Phases=1 Bus1=3074 Bus2=3075 r1=0.07 x1=0.01
New Line.L495 Phases=1 Bus1=3075 Bus2=3076 r1=0.07 x1=0.01
New Line.L496 Phases=1 Bus1=3076 Bus2=3077 r1=0.07 x1=0.01
New Line.L497 Phases=1 Bus1=3077 Bus2=3078 r1=0.07 x1=0.01
New Line.L498 Phases=1 Bus1=3078 Bus2=3079 r1=0.07 x1=0.01
New Line.L499 Phases=1 Bus1=3079 Bus2=3080 r1=0.07 x1=0.01
New Line.L500 Phases=1 Bus1=3081 Bus2=3082 r1=0.07 x1=0.01
New Line.L501 Phases=1 Bus1=3082 Bus2=3083 r1=0.07 x1=0.01
New Line.L502 Phases=1 Bus1=3083 Bus2=3084 r1=0.07 x1=0.01
New Line.L503 Phases=1 Bus1=3084 Bus2=3085 r1=0.07 x1=0.01
New Line.L504 Phases=1 Bus1=3085 Bus2=3086 r1=0.07 x1=0.01
New Line.L505 Phases=1 Bus1=3086 Bus2=3087 r1=0.07 x1=0.01
New Line.L506 Phases=1 Bus1=3087 Bus2=3088 r1=0.07 x1=0.01
New Line.L507 Phases=1 Bus1=3088 Bus2=3089 r1=0.07 x1=0.01
New Line.L508 Phases=1 Bus1=3089 Bus2=3090 r1=0.07 x1=0.01
New Line.L509 Phases=1 Bus1=3090 Bus2=3091 r1=0.07 x1=0.01
New Line.L510 Phases=1 Bus1=3091 Bus2=3092 r1=0.07 x1=0.01
New Line.L511 Phases=1 Bus1=3092 Bus2=3093 r1=0.07 x1=0.01
New Line.L512 Phases=1 Bus1=3093 Bus2=3094 r1=0.07 x1=0.01
New Line.L513 Phases=1 Bus1=3094 Bus2=3095 r1=0.07 x1=0.01
New Line.L514 Phases=1 Bus1=3095 Bus2=3096 r1=0.07 x1=0.01