! SysSim.dss
! A truncated version of a typical Master.dss file
! Only contains enough information to get an MPOPF simulation started
New object=circuit.adsnew10_1ph
Edit "Vsource.source" bus1=1 pu=1.03 R0=0 X0=0.00000001 phases=1 basekv=2.4018 R1=0 X1=0.00000001

Set VoltageBases = [4.16]
Set mode = Daily 
Set stepsize = 1h
Set number = 1