New Line.L1 Phases=1 Bus1=1 Bus2=2 r1=0.001 x1=0.001
New Line.L2 Phases=1 Bus1=2 Bus2=3 r1=0.00672 x1=0.1551
New Line.L3 Phases=1 Bus1=3 Bus2=4 r1=0.05 x1=0.001
New Line.L4 Phases=1 Bus1=4 Bus2=5 r1=0.01 x1=0.01
New Line.L5 Phases=1 Bus1=5 Bus2=6 r1=0.003058 x1=0.007156
New Line.L6 Phases=1 Bus1=6 Bus2=7 r1=0.001 x1=0.001
New Line.L7 Phases=1 Bus1=7 Bus2=8 r1=0.003083 x1=0.007214
New Line.L8 Phases=1 Bus1=8 Bus2=9 r1=0.003973 x1=0.009298
New Line.L9 Phases=1 Bus1=9 Bus2=10 r1=0.0109 x1=0.02551
New Line.L10 Phases=1 Bus1=10 Bus2=11 r1=0.01683 x1=0.03938
New Line.L11 Phases=1 Bus1=11 Bus2=12 r1=0.01929 x1=0.04514
New Line.L12 Phases=1 Bus1=12 Bus2=13 r1=0.006949 x1=0.01626
New Line.L13 Phases=1 Bus1=13 Bus2=14 r1=0.01661 x1=0.03887
New Line.L14 Phases=1 Bus1=14 Bus2=15 r1=0.001 x1=0.001
New Line.L15 Phases=1 Bus1=15 Bus2=16 r1=0.007099 x1=0.01661
New Line.L16 Phases=1 Bus1=16 Bus2=17 r1=0.003349 x1=0.007836
New Line.L17 Phases=1 Bus1=17 Bus2=18 r1=0.001 x1=0.001
New Line.L18 Phases=1 Bus1=18 Bus2=19 r1=0.008763 x1=0.0205
New Line.L19 Phases=1 Bus1=19 Bus2=20 r1=0.0169 x1=0.00943
New Line.L20 Phases=1 Bus1=20 Bus2=21 r1=0.2762 x1=0.1542
New Line.L21 Phases=1 Bus1=21 Bus2=22 r1=0.5204 x1=0.2904
New Line.L22 Phases=1 Bus1=22 Bus2=23 r1=0.1413 x1=0.07884
New Line.L23 Phases=1 Bus1=23 Bus2=24 r1=0.1206 x1=0.06733
New Line.L24 Phases=1 Bus1=24 Bus2=25 r1=0.08369 x1=0.04671
New Line.L25 Phases=1 Bus1=25 Bus2=26 r1=0.1568 x1=0.08753
New Line.L26 Phases=1 Bus1=26 Bus2=27 r1=0.8725 x1=0.4869
New Line.L27 Phases=1 Bus1=27 Bus2=28 r1=0.09543 x1=0.05325
New Line.L28 Phases=1 Bus1=28 Bus2=29 r1=0.1034 x1=0.08258
New Line.L29 Phases=1 Bus1=29 Bus2=30 r1=0.2819 x1=0.2252
New Line.L30 Phases=1 Bus1=30 Bus2=31 r1=0.0827 x1=0.06605
New Line.L31 Phases=1 Bus1=31 Bus2=32 r1=0.1362 x1=0.1088
New Line.L32 Phases=1 Bus1=32 Bus2=33 r1=0.2866 x1=0.1573
New Line.L33 Phases=1 Bus1=33 Bus2=34 r1=0.1353 x1=0.07425
New Line.L34 Phases=1 Bus1=34 Bus2=35 r1=1.026 x1=0.5654
New Line.L35 Phases=1 Bus1=35 Bus2=36 r1=0.1732 x1=0.09545
New Line.L36 Phases=1 Bus1=36 Bus2=37 r1=0.05533 x1=0.03049
New Line.L37 Phases=1 Bus1=37 Bus2=38 r1=0.07368 x1=0.05885
New Line.L38 Phases=1 Bus1=38 Bus2=39 r1=0.09075 x1=0.07248
New Line.L39 Phases=1 Bus1=39 Bus2=40 r1=0.08275 x1=0.06609
New Line.L40 Phases=1 Bus1=38 Bus2=41 r1=0.008683 x1=0.006935
New Line.L41 Phases=1 Bus1=41 Bus2=42 r1=0.07545 x1=0.06026
New Line.L42 Phases=1 Bus1=42 Bus2=43 r1=0.09377 x1=0.07489
New Line.L43 Phases=1 Bus1=43 Bus2=44 r1=0.06959 x1=0.05558
New Line.L44 Phases=1 Bus1=44 Bus2=45 r1=0.1051 x1=0.08392
New Line.L45 Phases=1 Bus1=45 Bus2=46 r1=0.09817 x1=0.07841
New Line.L46 Phases=1 Bus1=46 Bus2=47 r1=0.252 x1=0.1406
New Line.L47 Phases=1 Bus1=47 Bus2=48 r1=0.2119 x1=0.1183
New Line.L48 Phases=1 Bus1=46 Bus2=49 r1=0.6109 x1=0.3366
New Line.L49 Phases=1 Bus1=49 Bus2=50 r1=0.1017 x1=0.05604
New Line.L50 Phases=1 Bus1=50 Bus2=51 r1=0.1852 x1=0.1033
New Line.L51 Phases=1 Bus1=51 Bus2=52 r1=0.3888 x1=0.217
New Line.L52 Phases=1 Bus1=52 Bus2=53 r1=0.1657 x1=0.09245
New Line.L53 Phases=1 Bus1=52 Bus2=54 r1=0.2046 x1=0.1142
New Line.L54 Phases=1 Bus1=54 Bus2=55 r1=0.09198 x1=0.05133
New Line.L55 Phases=1 Bus1=55 Bus2=56 r1=0.113 x1=0.06308
New Line.L56 Phases=1 Bus1=56 Bus2=57 r1=0.06693 x1=0.05346
New Line.L57 Phases=1 Bus1=57 Bus2=58 r1=0.1214 x1=0.09697
New Line.L58 Phases=1 Bus1=58 Bus2=59 r1=0.08646 x1=0.06906
New Line.L59 Phases=1 Bus1=37 Bus2=60 r1=0.1387 x1=0.1108
New Line.L60 Phases=1 Bus1=60 Bus2=61 r1=0.06109 x1=0.04879
New Line.L61 Phases=1 Bus1=61 Bus2=62 r1=0.2478 x1=0.1979
New Line.L62 Phases=1 Bus1=35 Bus2=63 r1=0.1446 x1=0.0807
New Line.L63 Phases=1 Bus1=63 Bus2=64 r1=0.1105 x1=0.06166
New Line.L64 Phases=1 Bus1=64 Bus2=65 r1=0.1176 x1=0.06562
New Line.L65 Phases=1 Bus1=30 Bus2=66 r1=0.04509 x1=0.03601
New Line.L66 Phases=1 Bus1=66 Bus2=67 r1=0.09956 x1=0.07952
New Line.L67 Phases=1 Bus1=67 Bus2=68 r1=0.09074 x1=0.07247
New Line.L68 Phases=1 Bus1=68 Bus2=69 r1=0.2856 x1=0.2281
New Line.L69 Phases=1 Bus1=27 Bus2=70 r1=0.1729 x1=0.09611
New Line.L70 Phases=1 Bus1=19 Bus2=71 r1=0.01187 x1=0.02777
New Line.L71 Phases=1 Bus1=71 Bus2=72 r1=0.01048 x1=0.02452
New Line.L72 Phases=1 Bus1=72 Bus2=73 r1=0.008694 x1=0.02034
New Line.L73 Phases=1 Bus1=73 Bus2=74 r1=0.009303 x1=0.02177
New Line.L74 Phases=1 Bus1=74 Bus2=75 r1=0.01687 x1=0.03948
New Line.L75 Phases=1 Bus1=75 Bus2=76 r1=0.01957 x1=0.04579
New Line.L76 Phases=1 Bus1=76 Bus2=77 r1=0.01314 x1=0.03074
New Line.L77 Phases=1 Bus1=77 Bus2=78 r1=0.01057 x1=0.02474
New Line.L78 Phases=1 Bus1=78 Bus2=79 r1=0.006637 x1=0.01553
New Line.L79 Phases=1 Bus1=79 Bus2=80 r1=0.007891 x1=0.01846
New Line.L80 Phases=1 Bus1=80 Bus2=81 r1=0.04051 x1=0.0948
New Line.L81 Phases=1 Bus1=81 Bus2=82 r1=0.04841 x1=0.1133
New Line.L82 Phases=1 Bus1=82 Bus2=83 r1=0.006479 x1=0.01516
New Line.L83 Phases=1 Bus1=83 Bus2=84 r1=0.01654 x1=0.0387
New Line.L84 Phases=1 Bus1=84 Bus2=85 r1=0.006515 x1=0.01524
New Line.L85 Phases=1 Bus1=85 Bus2=86 r1=0.001471 x1=0.003442
New Line.L86 Phases=1 Bus1=86 Bus2=87 r1=0.01065 x1=0.02491
New Line.L87 Phases=1 Bus1=87 Bus2=88 r1=0.005439 x1=0.01273
New Line.L88 Phases=1 Bus1=88 Bus2=89 r1=0.01095 x1=0.00875
New Line.L89 Phases=1 Bus1=89 Bus2=90 r1=0.09403 x1=0.0751
New Line.L90 Phases=1 Bus1=88 Bus2=91 r1=0.01524 x1=0.03566
New Line.L91 Phases=1 Bus1=91 Bus2=92 r1=0.008334 x1=0.0195
New Line.L92 Phases=1 Bus1=92 Bus2=93 r1=0.001 x1=0.001
New Line.L93 Phases=1 Bus1=93 Bus2=94 r1=0.001624 x1=0.003799
New Line.L94 Phases=1 Bus1=94 Bus2=95 r1=0.005313 x1=0.01243
New Line.L95 Phases=1 Bus1=95 Bus2=96 r1=0.000826 x1=0.001932
New Line.L96 Phases=1 Bus1=96 Bus2=97 r1=0.01066 x1=0.02496
New Line.L97 Phases=1 Bus1=97 Bus2=98 r1=0.007174 x1=0.004004
New Line.L98 Phases=1 Bus1=98 Bus2=99 r1=0.1108 x1=0.06183
New Line.L99 Phases=1 Bus1=97 Bus2=100 r1=0.00654 x1=0.0153
New Line.L100 Phases=1 Bus1=100 Bus2=101 r1=0.01047 x1=0.00584
New Line.L101 Phases=1 Bus1=101 Bus2=102 r1=0.02086 x1=0.01164
New Line.L102 Phases=1 Bus1=102 Bus2=103 r1=0.1498 x1=0.08362
New Line.L103 Phases=1 Bus1=103 Bus2=104 r1=0.09071 x1=0.05062
New Line.L104 Phases=1 Bus1=100 Bus2=105 r1=0.004899 x1=0.01146
New Line.L105 Phases=1 Bus1=105 Bus2=106 r1=0.001 x1=0.001
New Line.L106 Phases=1 Bus1=106 Bus2=107 r1=0.001 x1=0.001
New Line.L107 Phases=1 Bus1=107 Bus2=108 r1=0.000828 x1=0.001937
New Line.L108 Phases=1 Bus1=108 Bus2=109 r1=0.006255 x1=0.01464
New Line.L109 Phases=1 Bus1=109 Bus2=110 r1=0.01533 x1=0.03586
New Line.L110 Phases=1 Bus1=110 Bus2=111 r1=0.00808 x1=0.01891
New Line.L111 Phases=1 Bus1=111 Bus2=112 r1=0.0174 x1=0.04072
New Line.L112 Phases=1 Bus1=112 Bus2=113 r1=0.0145 x1=0.03392
New Line.L113 Phases=1 Bus1=113 Bus2=114 r1=0.001 x1=0.001
New Line.L114 Phases=1 Bus1=114 Bus2=115 r1=0.009821 x1=0.02298
New Line.L115 Phases=1 Bus1=115 Bus2=116 r1=0.01149 x1=0.02688
New Line.L116 Phases=1 Bus1=116 Bus2=117 r1=0.01056 x1=0.0247
New Line.L117 Phases=1 Bus1=117 Bus2=118 r1=0.02055 x1=0.04809
New Line.L118 Phases=1 Bus1=118 Bus2=119 r1=0.0048 x1=0.00112
New Line.L119 Phases=1 Bus1=119 Bus2=120 r1=0.009576 x1=0.02241
New Line.L120 Phases=1 Bus1=120 Bus2=121 r1=0.008423 x1=0.01971
New Line.L121 Phases=1 Bus1=121 Bus2=122 r1=0.002518 x1=0.000811
New Line.L122 Phases=1 Bus1=122 Bus2=123 r1=0.0123 x1=0.02878
New Line.L123 Phases=1 Bus1=123 Bus2=124 r1=0.0118 x1=0.02761
New Line.L124 Phases=1 Bus1=124 Bus2=125 r1=0.104 x1=0.03352
New Line.L125 Phases=1 Bus1=125 Bus2=126 r1=0.04305 x1=0.01387
New Line.L126 Phases=1 Bus1=126 Bus2=127 r1=0.2152 x1=0.06933
New Line.L127 Phases=1 Bus1=127 Bus2=128 r1=0.04052 x1=0.02261
New Line.L128 Phases=1 Bus1=128 Bus2=129 r1=0.04744 x1=0.02647
New Line.L129 Phases=1 Bus1=129 Bus2=130 r1=0.05653 x1=0.03155
New Line.L130 Phases=1 Bus1=130 Bus2=131 r1=0.1333 x1=0.07438
New Line.L131 Phases=1 Bus1=131 Bus2=132 r1=0.1499 x1=0.08367
New Line.L132 Phases=1 Bus1=130 Bus2=133 r1=0.05785 x1=0.0462
New Line.L133 Phases=1 Bus1=127 Bus2=134 r1=0.2273 x1=0.07324
New Line.L134 Phases=1 Bus1=134 Bus2=135 r1=0.464 x1=0.1495
New Line.L135 Phases=1 Bus1=135 Bus2=136 r1=0.02094 x1=0.01673
New Line.L136 Phases=1 Bus1=136 Bus2=137 r1=0.103 x1=0.08229
New Line.L137 Phases=1 Bus1=137 Bus2=138 r1=0.02995 x1=0.02392
New Line.L138 Phases=1 Bus1=138 Bus2=139 r1=0.0776 x1=0.06198
New Line.L139 Phases=1 Bus1=139 Bus2=140 r1=0.07638 x1=0.06101
New Line.L140 Phases=1 Bus1=140 Bus2=141 r1=0.1047 x1=0.08359
New Line.L141 Phases=1 Bus1=141 Bus2=142 r1=0.1047 x1=0.08363
New Line.L142 Phases=1 Bus1=142 Bus2=143 r1=0.1131 x1=0.09033
New Line.L143 Phases=1 Bus1=143 Bus2=144 r1=0.08915 x1=0.07121
New Line.L144 Phases=1 Bus1=144 Bus2=145 r1=0.1128 x1=0.09007
New Line.L145 Phases=1 Bus1=145 Bus2=146 r1=0.2578 x1=0.2059
New Line.L146 Phases=1 Bus1=127 Bus2=147 r1=0.02038 x1=0.01628
New Line.L147 Phases=1 Bus1=124 Bus2=148 r1=0.01466 x1=0.0343
New Line.L148 Phases=1 Bus1=148 Bus2=149 r1=0.01403 x1=0.03283
New Line.L149 Phases=1 Bus1=149 Bus2=150 r1=0.00461 x1=0.01079
New Line.L150 Phases=1 Bus1=150 Bus2=151 r1=0.009974 x1=0.02334
New Line.L151 Phases=1 Bus1=151 Bus2=152 r1=0.0133 x1=0.03113
New Line.L152 Phases=1 Bus1=152 Bus2=153 r1=0.008034 x1=0.0188
New Line.L153 Phases=1 Bus1=153 Bus2=154 r1=0.01176 x1=0.009775
New Line.L154 Phases=1 Bus1=154 Bus2=155 r1=0.01114 x1=0.009254
New Line.L155 Phases=1 Bus1=155 Bus2=156 r1=0.08601 x1=0.07147
New Line.L156 Phases=1 Bus1=156 Bus2=157 r1=0.002671 x1=0.002219
New Line.L157 Phases=1 Bus1=157 Bus2=158 r1=0.1808 x1=0.1444
New Line.L158 Phases=1 Bus1=153 Bus2=159 r1=0.006294 x1=0.01473
New Line.L159 Phases=1 Bus1=159 Bus2=160 r1=0.01431 x1=0.03349
New Line.L160 Phases=1 Bus1=160 Bus2=161 r1=0.00661 x1=0.01547
New Line.L161 Phases=1 Bus1=161 Bus2=162 r1=0.01017 x1=0.02379
New Line.L162 Phases=1 Bus1=162 Bus2=163 r1=0.02508 x1=0.05867
New Line.L163 Phases=1 Bus1=163 Bus2=164 r1=0.001 x1=0.001
New Line.L164 Phases=1 Bus1=164 Bus2=165 r1=0.01405 x1=0.03287
New Line.L165 Phases=1 Bus1=165 Bus2=166 r1=0.01068 x1=0.008528
New Line.L166 Phases=1 Bus1=166 Bus2=167 r1=0.02409 x1=0.01924
New Line.L167 Phases=1 Bus1=167 Bus2=168 r1=0.01646 x1=0.01314
New Line.L168 Phases=1 Bus1=168 Bus2=169 r1=0.08269 x1=0.06604
New Line.L169 Phases=1 Bus1=167 Bus2=170 r1=0.02139 x1=0.01708
New Line.L170 Phases=1 Bus1=170 Bus2=171 r1=0.01744 x1=0.01393
New Line.L171 Phases=1 Bus1=165 Bus2=172 r1=0.01194 x1=0.02794
New Line.L172 Phases=1 Bus1=172 Bus2=173 r1=0.0066 x1=0.01544
New Line.L173 Phases=1 Bus1=173 Bus2=174 r1=0.0149 x1=0.03487
New Line.L174 Phases=1 Bus1=174 Bus2=175 r1=0.01525 x1=0.008513
New Line.L175 Phases=1 Bus1=175 Bus2=176 r1=0.02523 x1=0.01408
New Line.L176 Phases=1 Bus1=176 Bus2=177 r1=0.01404 x1=0.007836
New Line.L177 Phases=1 Bus1=177 Bus2=178 r1=0.1255 x1=0.07003
New Line.L178 Phases=1 Bus1=178 Bus2=179 r1=0.1091 x1=0.05988
New Line.L179 Phases=1 Bus1=179 Bus2=180 r1=0.09282 x1=0.0518
New Line.L180 Phases=1 Bus1=180 Bus2=181 r1=0.02387 x1=0.01906
New Line.L181 Phases=1 Bus1=180 Bus2=182 r1=0.04091 x1=0.03267
New Line.L182 Phases=1 Bus1=182 Bus2=183 r1=0.244 x1=0.1362
New Line.L183 Phases=1 Bus1=183 Bus2=184 r1=0.1654 x1=0.09229
New Line.L184 Phases=1 Bus1=184 Bus2=185 r1=0.06562 x1=0.03662
New Line.L185 Phases=1 Bus1=183 Bus2=186 r1=0.2771 x1=0.1547
New Line.L186 Phases=1 Bus1=186 Bus2=187 r1=0.3359 x1=0.1874
New Line.L187 Phases=1 Bus1=187 Bus2=188 r1=0.144 x1=0.08038
New Line.L188 Phases=1 Bus1=188 Bus2=189 r1=0.1295 x1=0.07229
New Line.L189 Phases=1 Bus1=189 Bus2=190 r1=0.1033 x1=0.05766
New Line.L190 Phases=1 Bus1=187 Bus2=191 r1=0.02221 x1=0.01239
New Line.L191 Phases=1 Bus1=187 Bus2=192 r1=0.1172 x1=0.0654
New Line.L192 Phases=1 Bus1=192 Bus2=193 r1=0.2083 x1=0.1162
New Line.L193 Phases=1 Bus1=193 Bus2=194 r1=0.1429 x1=0.07943
New Line.L194 Phases=1 Bus1=194 Bus2=195 r1=0.3286 x1=0.1827
New Line.L195 Phases=1 Bus1=195 Bus2=196 r1=0.2135 x1=0.1187
New Line.L196 Phases=1 Bus1=196 Bus2=197 r1=0.1222 x1=0.06817
New Line.L197 Phases=1 Bus1=197 Bus2=198 r1=0.003752 x1=0.002996
New Line.L198 Phases=1 Bus1=198 Bus2=199 r1=0.1158 x1=0.09246
New Line.L199 Phases=1 Bus1=199 Bus2=200 r1=0.1079 x1=0.08618
New Line.L200 Phases=1 Bus1=197 Bus2=201 r1=0.09774 x1=0.05454
New Line.L201 Phases=1 Bus1=201 Bus2=202 r1=0.07253 x1=0.05793
New Line.L202 Phases=1 Bus1=196 Bus2=203 r1=0.1708 x1=0.09495
New Line.L203 Phases=1 Bus1=203 Bus2=204 r1=0.3013 x1=0.1682
New Line.L204 Phases=1 Bus1=204 Bus2=205 r1=0.1906 x1=0.1064
New Line.L205 Phases=1 Bus1=205 Bus2=206 r1=0.1719 x1=0.09592
New Line.L206 Phases=1 Bus1=206 Bus2=207 r1=0.1404 x1=0.07834
New Line.L207 Phases=1 Bus1=207 Bus2=208 r1=0.152 x1=0.0848
New Line.L208 Phases=1 Bus1=204 Bus2=209 r1=0.4321 x1=0.2411
New Line.L209 Phases=1 Bus1=209 Bus2=210 r1=0.2562 x1=0.143
New Line.L210 Phases=1 Bus1=210 Bus2=211 r1=0.1247 x1=0.06958
New Line.L211 Phases=1 Bus1=211 Bus2=212 r1=0.267 x1=0.149
New Line.L212 Phases=1 Bus1=212 Bus2=213 r1=0.1178 x1=0.06575
New Line.L213 Phases=1 Bus1=212 Bus2=214 r1=0.07899 x1=0.06309
New Line.L214 Phases=1 Bus1=209 Bus2=215 r1=0.07206 x1=0.04021
New Line.L215 Phases=1 Bus1=215 Bus2=216 r1=0.2913 x1=0.1626
New Line.L216 Phases=1 Bus1=216 Bus2=217 r1=0.2852 x1=0.1585
New Line.L217 Phases=1 Bus1=217 Bus2=218 r1=0.1512 x1=0.08408
New Line.L218 Phases=1 Bus1=218 Bus2=219 r1=0.09943 x1=0.05458
New Line.L219 Phases=1 Bus1=219 Bus2=220 r1=0.05235 x1=0.02874
New Line.L220 Phases=1 Bus1=220 Bus2=221 r1=0.001 x1=0.001
New Line.L221 Phases=1 Bus1=221 Bus2=222 r1=0.08047 x1=0.04417
New Line.L222 Phases=1 Bus1=222 Bus2=223 r1=0.2307 x1=0.1287
New Line.L223 Phases=1 Bus1=223 Bus2=224 r1=0.3262 x1=0.182
New Line.L224 Phases=1 Bus1=222 Bus2=225 r1=0.2187 x1=0.1201
New Line.L225 Phases=1 Bus1=225 Bus2=226 r1=0.7271 x1=0.3991
New Line.L226 Phases=1 Bus1=226 Bus2=227 r1=0.1084 x1=0.05948
New Line.L227 Phases=1 Bus1=227 Bus2=228 r1=0.1297 x1=0.07117
New Line.L228 Phases=1 Bus1=228 Bus2=229 r1=0.1903 x1=0.1045
New Line.L229 Phases=1 Bus1=226 Bus2=230 r1=0.08499 x1=0.06788
New Line.L230 Phases=1 Bus1=218 Bus2=231 r1=0.04959 x1=0.02757
New Line.L231 Phases=1 Bus1=231 Bus2=232 r1=0.1779 x1=0.09892
New Line.L232 Phases=1 Bus1=232 Bus2=233 r1=0.007211 x1=0.004024
New Line.L233 Phases=1 Bus1=233 Bus2=234 r1=0.211 x1=0.1177
New Line.L234 Phases=1 Bus1=234 Bus2=235 r1=0.1133 x1=0.06217
New Line.L235 Phases=1 Bus1=235 Bus2=236 r1=0.1909 x1=0.1061
New Line.L236 Phases=1 Bus1=236 Bus2=237 r1=0.3347 x1=0.1845
New Line.L237 Phases=1 Bus1=237 Bus2=238 r1=0.1328 x1=0.07318
New Line.L238 Phases=1 Bus1=238 Bus2=239 r1=0.0677 x1=0.03778
New Line.L239 Phases=1 Bus1=239 Bus2=240 r1=0.1067 x1=0.05957
New Line.L240 Phases=1 Bus1=240 Bus2=241 r1=0.03796 x1=0.02119
New Line.L241 Phases=1 Bus1=241 Bus2=242 r1=0.009908 x1=0.005529
New Line.L242 Phases=1 Bus1=240 Bus2=243 r1=0.1056 x1=0.05894
New Line.L243 Phases=1 Bus1=218 Bus2=244 r1=0.1374 x1=0.07541
New Line.L244 Phases=1 Bus1=216 Bus2=245 r1=0.1311 x1=0.07317
New Line.L245 Phases=1 Bus1=216 Bus2=246 r1=0.05315 x1=0.04245
New Line.L246 Phases=1 Bus1=209 Bus2=247 r1=0.2123 x1=0.1185
New Line.L247 Phases=1 Bus1=204 Bus2=248 r1=0.181 x1=0.101
New Line.L248 Phases=1 Bus1=196 Bus2=249 r1=0.1337 x1=0.07461
New Line.L249 Phases=1 Bus1=195 Bus2=250 r1=0.03686 x1=0.02944
New Line.L250 Phases=1 Bus1=250 Bus2=251 r1=0.1019 x1=0.08135
New Line.L251 Phases=1 Bus1=192 Bus2=252 r1=0.06072 x1=0.03007
New Line.L252 Phases=1 Bus1=252 Bus2=253 r1=0.1129 x1=0.06199
New Line.L253 Phases=1 Bus1=253 Bus2=254 r1=0.2581 x1=0.144
New Line.L254 Phases=1 Bus1=254 Bus2=255 r1=0.1309 x1=0.07303
New Line.L255 Phases=1 Bus1=255 Bus2=256 r1=0.3982 x1=0.2222
New Line.L256 Phases=1 Bus1=256 Bus2=257 r1=0.09207 x1=0.05138
New Line.L257 Phases=1 Bus1=255 Bus2=258 r1=0.07781 x1=0.06215
New Line.L258 Phases=1 Bus1=258 Bus2=259 r1=0.06831 x1=0.05456
New Line.L259 Phases=1 Bus1=259 Bus2=260 r1=0.04345 x1=0.0347
New Line.L260 Phases=1 Bus1=260 Bus2=261 r1=0.1028 x1=0.08208
New Line.L261 Phases=1 Bus1=261 Bus2=262 r1=0.09801 x1=0.07828
New Line.L262 Phases=1 Bus1=262 Bus2=263 r1=0.1035 x1=0.08266
New Line.L263 Phases=1 Bus1=263 Bus2=264 r1=0.07793 x1=0.06224
New Line.L264 Phases=1 Bus1=263 Bus2=265 r1=0.06998 x1=0.0559
New Line.L265 Phases=1 Bus1=187 Bus2=266 r1=0.1715 x1=0.0957
New Line.L266 Phases=1 Bus1=183 Bus2=267 r1=0.003402 x1=0.001899
New Line.L267 Phases=1 Bus1=267 Bus2=268 r1=0.15 x1=0.08373
New Line.L268 Phases=1 Bus1=268 Bus2=269 r1=0.2556 x1=0.1426
New Line.L269 Phases=1 Bus1=180 Bus2=270 r1=0.3496 x1=0.1951
New Line.L270 Phases=1 Bus1=270 Bus2=271 r1=0.3259 x1=0.1819
New Line.L271 Phases=1 Bus1=174 Bus2=272 r1=0.01136 x1=0.02659
New Line.L272 Phases=1 Bus1=272 Bus2=273 r1=0.02769 x1=0.02212
New Line.L273 Phases=1 Bus1=272 Bus2=274 r1=0.01398 x1=0.03271
New Line.L274 Phases=1 Bus1=274 Bus2=275 r1=0.01458 x1=0.03412
New Line.L275 Phases=1 Bus1=275 Bus2=276 r1=0.01802 x1=0.01005
New Line.L276 Phases=1 Bus1=276 Bus2=277 r1=0.01138 x1=0.006352
New Line.L277 Phases=1 Bus1=277 Bus2=278 r1=0.1191 x1=0.06645
New Line.L278 Phases=1 Bus1=278 Bus2=279 r1=0.1942 x1=0.1066
New Line.L279 Phases=1 Bus1=279 Bus2=280 r1=0.1811 x1=0.09938
New Line.L280 Phases=1 Bus1=275 Bus2=281 r1=0.006179 x1=0.01446
New Line.L281 Phases=1 Bus1=281 Bus2=282 r1=0.1257 x1=0.04051
New Line.L282 Phases=1 Bus1=282 Bus2=283 r1=0.1236 x1=0.03982
New Line.L283 Phases=1 Bus1=283 Bus2=284 r1=0.1291 x1=0.0416
New Line.L284 Phases=1 Bus1=284 Bus2=285 r1=0.1568 x1=0.05053
New Line.L285 Phases=1 Bus1=285 Bus2=286 r1=0.1816 x1=0.0585
New Line.L286 Phases=1 Bus1=286 Bus2=287 r1=0.1095 x1=0.03527
New Line.L287 Phases=1 Bus1=287 Bus2=288 r1=0.1311 x1=0.04224
New Line.L288 Phases=1 Bus1=288 Bus2=289 r1=0.06041 x1=0.01946
New Line.L289 Phases=1 Bus1=289 Bus2=290 r1=0.007858 x1=0.002532
New Line.L290 Phases=1 Bus1=290 Bus2=291 r1=0.1223 x1=0.03939
New Line.L291 Phases=1 Bus1=291 Bus2=292 r1=0.1041 x1=0.03353
New Line.L292 Phases=1 Bus1=292 Bus2=293 r1=0.1352 x1=0.04357
New Line.L293 Phases=1 Bus1=293 Bus2=294 r1=0.02886 x1=0.02305
New Line.L294 Phases=1 Bus1=294 Bus2=295 r1=0.002909 x1=0.002323
New Line.L295 Phases=1 Bus1=295 Bus2=296 r1=0.01174 x1=0.009377
New Line.L296 Phases=1 Bus1=296 Bus2=297 r1=0.05868 x1=0.04686
New Line.L297 Phases=1 Bus1=297 Bus2=298 r1=0.1882 x1=0.105
New Line.L298 Phases=1 Bus1=298 Bus2=299 r1=0.1953 x1=0.1086
New Line.L299 Phases=1 Bus1=299 Bus2=300 r1=0.2084 x1=0.1163
New Line.L300 Phases=1 Bus1=300 Bus2=301 r1=0.07664 x1=0.03864
New Line.L301 Phases=1 Bus1=300 Bus2=302 r1=0.2637 x1=0.1472
New Line.L302 Phases=1 Bus1=302 Bus2=303 r1=0.1077 x1=0.06012
New Line.L303 Phases=1 Bus1=293 Bus2=304 r1=0.07337 x1=0.03703
New Line.L304 Phases=1 Bus1=304 Bus2=305 r1=0.03563 x1=0.01798
New Line.L305 Phases=1 Bus1=304 Bus2=306 r1=0.07336 x1=0.03703
New Line.L306 Phases=1 Bus1=293 Bus2=307 r1=0.1594 x1=0.08893
New Line.L307 Phases=1 Bus1=293 Bus2=308 r1=0.2118 x1=0.06824
New Line.L308 Phases=1 Bus1=308 Bus2=309 r1=0.007747 x1=0.006187
New Line.L309 Phases=1 Bus1=309 Bus2=310 r1=0.0111 x1=0.008861
New Line.L310 Phases=1 Bus1=310 Bus2=311 r1=0.01001 x1=0.007996
New Line.L311 Phases=1 Bus1=311 Bus2=312 r1=0.05995 x1=0.04788
New Line.L312 Phases=1 Bus1=312 Bus2=313 r1=0.1106 x1=0.08833
New Line.L313 Phases=1 Bus1=308 Bus2=314 r1=0.1704 x1=0.05492
New Line.L314 Phases=1 Bus1=314 Bus2=315 r1=0.1662 x1=0.05357
New Line.L315 Phases=1 Bus1=315 Bus2=316 r1=0.05897 x1=0.019
New Line.L316 Phases=1 Bus1=316 Bus2=317 r1=0.08457 x1=0.04719
New Line.L317 Phases=1 Bus1=316 Bus2=318 r1=0.1477 x1=0.04758
New Line.L318 Phases=1 Bus1=318 Bus2=319 r1=0.1318 x1=0.04248
New Line.L319 Phases=1 Bus1=319 Bus2=320 r1=0.001 x1=0.001
New Line.L320 Phases=1 Bus1=320 Bus2=321 r1=0.007088 x1=0.002284
New Line.L321 Phases=1 Bus1=321 Bus2=322 r1=0.005 x1=0.001
New Line.L322 Phases=1 Bus1=322 Bus2=323 r1=0.008974 x1=0.002891
New Line.L323 Phases=1 Bus1=323 Bus2=324 r1=0.08932 x1=0.02878
New Line.L324 Phases=1 Bus1=324 Bus2=325 r1=0.1216 x1=0.03919
New Line.L325 Phases=1 Bus1=325 Bus2=326 r1=0.07597 x1=0.04224
New Line.L326 Phases=1 Bus1=325 Bus2=327 r1=0.2493 x1=0.08033
New Line.L327 Phases=1 Bus1=327 Bus2=328 r1=0.1411 x1=0.04546
New Line.L328 Phases=1 Bus1=328 Bus2=329 r1=0.1063 x1=0.05833
New Line.L329 Phases=1 Bus1=329 Bus2=330 r1=0.03777 x1=0.02073
New Line.L330 Phases=1 Bus1=330 Bus2=331 r1=0.03528 x1=0.01937
New Line.L331 Phases=1 Bus1=331 Bus2=332 r1=0.05773 x1=0.03169
New Line.L332 Phases=1 Bus1=332 Bus2=333 r1=0.03961 x1=0.02174
New Line.L333 Phases=1 Bus1=333 Bus2=334 r1=0.03518 x1=0.0281
New Line.L334 Phases=1 Bus1=334 Bus2=335 r1=0.01204 x1=0.00962
New Line.L335 Phases=1 Bus1=335 Bus2=336 r1=0.05571 x1=0.04449
New Line.L336 Phases=1 Bus1=336 Bus2=337 r1=0.03598 x1=0.02874
New Line.L337 Phases=1 Bus1=337 Bus2=338 r1=0.05971 x1=0.04769
New Line.L338 Phases=1 Bus1=338 Bus2=339 r1=0.08017 x1=0.06403
New Line.L339 Phases=1 Bus1=339 Bus2=340 r1=0.08056 x1=0.06434
New Line.L340 Phases=1 Bus1=333 Bus2=341 r1=0.1243 x1=0.06823
New Line.L341 Phases=1 Bus1=341 Bus2=342 r1=0.0768 x1=0.04215
New Line.L342 Phases=1 Bus1=342 Bus2=343 r1=0.103 x1=0.05652
New Line.L343 Phases=1 Bus1=343 Bus2=344 r1=0.1986 x1=0.109
New Line.L344 Phases=1 Bus1=344 Bus2=345 r1=0.1022 x1=0.05608
New Line.L345 Phases=1 Bus1=345 Bus2=346 r1=0.06079 x1=0.03393
New Line.L346 Phases=1 Bus1=346 Bus2=347 r1=0.03924 x1=0.0219
New Line.L347 Phases=1 Bus1=346 Bus2=348 r1=0.2371 x1=0.1323
New Line.L348 Phases=1 Bus1=348 Bus2=349 r1=0.1617 x1=0.09024
New Line.L349 Phases=1 Bus1=349 Bus2=350 r1=0.148 x1=0.08259
New Line.L350 Phases=1 Bus1=350 Bus2=351 r1=0.1923 x1=0.1073
New Line.L351 Phases=1 Bus1=351 Bus2=352 r1=0.2547 x1=0.1421
New Line.L352 Phases=1 Bus1=352 Bus2=353 r1=0.1459 x1=0.0814
New Line.L353 Phases=1 Bus1=349 Bus2=354 r1=0.006813 x1=0.003802
New Line.L354 Phases=1 Bus1=354 Bus2=355 r1=0.1567 x1=0.08743
New Line.L355 Phases=1 Bus1=355 Bus2=356 r1=0.133 x1=0.07421
New Line.L356 Phases=1 Bus1=356 Bus2=357 r1=0.05209 x1=0.02626
New Line.L357 Phases=1 Bus1=357 Bus2=358 r1=0.2003 x1=0.1118
New Line.L358 Phases=1 Bus1=358 Bus2=359 r1=0.1512 x1=0.08435
New Line.L359 Phases=1 Bus1=358 Bus2=360 r1=0.005874 x1=0.003278
New Line.L360 Phases=1 Bus1=360 Bus2=361 r1=0.1691 x1=0.09434
New Line.L361 Phases=1 Bus1=361 Bus2=362 r1=0.1289 x1=0.07168
New Line.L362 Phases=1 Bus1=362 Bus2=363 r1=0.09108 x1=0.07274
New Line.L363 Phases=1 Bus1=357 Bus2=364 r1=0.2009 x1=0.1107
New Line.L364 Phases=1 Bus1=364 Bus2=365 r1=0.01706 x1=0.009401
New Line.L365 Phases=1 Bus1=365 Bus2=366 r1=0.1629 x1=0.0898
New Line.L366 Phases=1 Bus1=366 Bus2=367 r1=0.1392 x1=0.07669
New Line.L367 Phases=1 Bus1=364 Bus2=368 r1=0.01361 x1=0.007472
New Line.L368 Phases=1 Bus1=368 Bus2=369 r1=0.001 x1=0.001
New Line.L369 Phases=1 Bus1=369 Bus2=370 r1=0.00752 x1=0.004128
New Line.L370 Phases=1 Bus1=370 Bus2=371 r1=0.01997 x1=0.01096
New Line.L371 Phases=1 Bus1=371 Bus2=372 r1=0.04346 x1=0.02386
New Line.L372 Phases=1 Bus1=372 Bus2=373 r1=0.1631 x1=0.1303
New Line.L373 Phases=1 Bus1=370 Bus2=374 r1=0.07231 x1=0.05776
New Line.L374 Phases=1 Bus1=348 Bus2=375 r1=0.06854 x1=0.03825
New Line.L375 Phases=1 Bus1=375 Bus2=376 r1=0.09987 x1=0.05573
New Line.L376 Phases=1 Bus1=376 Bus2=377 r1=0.09406 x1=0.07513
New Line.L377 Phases=1 Bus1=346 Bus2=378 r1=0.1858 x1=0.1033
New Line.L378 Phases=1 Bus1=343 Bus2=379 r1=0.03537 x1=0.01974
New Line.L379 Phases=1 Bus1=379 Bus2=380 r1=0.03499 x1=0.01953
New Line.L380 Phases=1 Bus1=380 Bus2=381 r1=0.2419 x1=0.135
New Line.L381 Phases=1 Bus1=381 Bus2=382 r1=0.158 x1=0.1262
New Line.L382 Phases=1 Bus1=343 Bus2=383 r1=0.1518 x1=0.08471
New Line.L383 Phases=1 Bus1=341 Bus2=384 r1=0.04269 x1=0.03409
New Line.L384 Phases=1 Bus1=384 Bus2=385 r1=0.07965 x1=0.06362
New Line.L385 Phases=1 Bus1=328 Bus2=386 r1=0.007756 x1=0.004328
New Line.L386 Phases=1 Bus1=386 Bus2=387 r1=0.01073 x1=0.005986
New Line.L387 Phases=1 Bus1=387 Bus2=388 r1=0.1727 x1=0.09637
New Line.L388 Phases=1 Bus1=388 Bus2=389 r1=0.09757 x1=0.05445
New Line.L389 Phases=1 Bus1=388 Bus2=390 r1=0.1236 x1=0.0687
New Line.L390 Phases=1 Bus1=390 Bus2=391 r1=0.1442 x1=0.08015
New Line.L391 Phases=1 Bus1=391 Bus2=392 r1=0.1672 x1=0.09295
New Line.L392 Phases=1 Bus1=392 Bus2=393 r1=0.06579 x1=0.03657
New Line.L393 Phases=1 Bus1=393 Bus2=394 r1=0.07248 x1=0.04029
New Line.L394 Phases=1 Bus1=394 Bus2=395 r1=0.2839 x1=0.1584
New Line.L395 Phases=1 Bus1=395 Bus2=396 r1=0.1464 x1=0.08173
New Line.L396 Phases=1 Bus1=396 Bus2=397 r1=0.09904 x1=0.05436
New Line.L397 Phases=1 Bus1=397 Bus2=398 r1=0.09998 x1=0.05488
New Line.L398 Phases=1 Bus1=398 Bus2=399 r1=0.06095 x1=0.03401
New Line.L399 Phases=1 Bus1=398 Bus2=400 r1=0.09999 x1=0.0558
New Line.L400 Phases=1 Bus1=400 Bus2=401 r1=0.1523 x1=0.08497
New Line.L401 Phases=1 Bus1=401 Bus2=402 r1=0.2811 x1=0.1569
New Line.L402 Phases=1 Bus1=402 Bus2=403 r1=0.008551 x1=0.004772
New Line.L403 Phases=1 Bus1=403 Bus2=404 r1=0.1037 x1=0.05786
New Line.L404 Phases=1 Bus1=404 Bus2=405 r1=0.1796 x1=0.1002
New Line.L405 Phases=1 Bus1=404 Bus2=406 r1=0.04609 x1=0.02572
New Line.L406 Phases=1 Bus1=406 Bus2=407 r1=0.1279 x1=0.07136
New Line.L407 Phases=1 Bus1=388 Bus2=408 r1=0.1524 x1=0.08367
New Line.L408 Phases=1 Bus1=408 Bus2=409 r1=0.03185 x1=0.02543
New Line.L409 Phases=1 Bus1=328 Bus2=410 r1=0.05887 x1=0.01812
New Line.L410 Phases=1 Bus1=410 Bus2=411 r1=0.1083 x1=0.03334
New Line.L411 Phases=1 Bus1=411 Bus2=412 r1=0.1421 x1=0.07801
New Line.L412 Phases=1 Bus1=411 Bus2=413 r1=0.0387 x1=0.01191
New Line.L413 Phases=1 Bus1=413 Bus2=414 r1=0.09571 x1=0.02946
New Line.L414 Phases=1 Bus1=414 Bus2=415 r1=0.0672 x1=0.02165
New Line.L415 Phases=1 Bus1=415 Bus2=416 r1=0.02308 x1=0.007435
New Line.L416 Phases=1 Bus1=416 Bus2=417 r1=0.001 x1=0.001
New Line.L417 Phases=1 Bus1=417 Bus2=418 r1=0.1434 x1=0.0462
New Line.L418 Phases=1 Bus1=418 Bus2=419 r1=0.1131 x1=0.03644
New Line.L419 Phases=1 Bus1=419 Bus2=420 r1=0.1637 x1=0.05275
New Line.L420 Phases=1 Bus1=420 Bus2=421 r1=0.1415 x1=0.0456
New Line.L421 Phases=1 Bus1=421 Bus2=422 r1=0.09234 x1=0.02975
New Line.L422 Phases=1 Bus1=422 Bus2=423 r1=0.1927 x1=0.06208
New Line.L423 Phases=1 Bus1=423 Bus2=424 r1=0.155 x1=0.04995
New Line.L424 Phases=1 Bus1=424 Bus2=425 r1=0.274 x1=0.08828
New Line.L425 Phases=1 Bus1=425 Bus2=426 r1=0.1846 x1=0.05947
New Line.L426 Phases=1 Bus1=426 Bus2=427 r1=0.0538 x1=0.01733
New Line.L427 Phases=1 Bus1=427 Bus2=428 r1=0.1159 x1=0.03735
New Line.L428 Phases=1 Bus1=428 Bus2=429 r1=0.1064 x1=0.03274
New Line.L429 Phases=1 Bus1=429 Bus2=430 r1=0.05838 x1=0.01881
New Line.L430 Phases=1 Bus1=430 Bus2=431 r1=0.1099 x1=0.0354
New Line.L431 Phases=1 Bus1=431 Bus2=432 r1=0.09768 x1=0.03147
New Line.L432 Phases=1 Bus1=432 Bus2=433 r1=0.06966 x1=0.02144
New Line.L433 Phases=1 Bus1=433 Bus2=434 r1=0.06465 x1=0.0199
New Line.L434 Phases=1 Bus1=434 Bus2=435 r1=0.1458 x1=0.08136
New Line.L435 Phases=1 Bus1=435 Bus2=436 r1=0.1096 x1=0.08755
New Line.L436 Phases=1 Bus1=436 Bus2=437 r1=0.08271 x1=0.06606
New Line.L437 Phases=1 Bus1=435 Bus2=438 r1=0.1085 x1=0.06056
New Line.L438 Phases=1 Bus1=434 Bus2=439 r1=0.08185 x1=0.02519
New Line.L439 Phases=1 Bus1=439 Bus2=440 r1=0.1082 x1=0.0333
New Line.L440 Phases=1 Bus1=440 Bus2=441 r1=0.01262 x1=0.006666
New Line.L441 Phases=1 Bus1=441 Bus2=442 r1=0.02321 x1=0.01226
New Line.L442 Phases=1 Bus1=442 Bus2=443 r1=0.1707 x1=0.09016
New Line.L443 Phases=1 Bus1=443 Bus2=444 r1=0.1694 x1=0.09298
New Line.L444 Phases=1 Bus1=444 Bus2=445 r1=0.1486 x1=0.08157
New Line.L445 Phases=1 Bus1=444 Bus2=446 r1=0.162 x1=0.09041
New Line.L446 Phases=1 Bus1=444 Bus2=447 r1=0.03438 x1=0.01919
New Line.L447 Phases=1 Bus1=440 Bus2=448 r1=0.1278 x1=0.04117
New Line.L448 Phases=1 Bus1=448 Bus2=449 r1=0.05295 x1=0.01706
New Line.L449 Phases=1 Bus1=449 Bus2=450 r1=0.001 x1=0.001
New Line.L450 Phases=1 Bus1=450 Bus2=451 r1=0.05234 x1=0.01686
New Line.L451 Phases=1 Bus1=451 Bus2=452 r1=0.01081 x1=0.008633
New Line.L452 Phases=1 Bus1=452 Bus2=453 r1=0.008185 x1=0.006537
New Line.L453 Phases=1 Bus1=453 Bus2=454 r1=0.04373 x1=0.03492
New Line.L454 Phases=1 Bus1=454 Bus2=455 r1=0.08344 x1=0.06664
New Line.L455 Phases=1 Bus1=453 Bus2=456 r1=0.1148 x1=0.09172
New Line.L456 Phases=1 Bus1=456 Bus2=457 r1=0.1696 x1=0.1355
New Line.L457 Phases=1 Bus1=451 Bus2=458 r1=0.01416 x1=0.004562
New Line.L458 Phases=1 Bus1=458 Bus2=459 r1=0.1428 x1=0.046
New Line.L459 Phases=1 Bus1=459 Bus2=460 r1=0.06718 x1=0.02165
New Line.L460 Phases=1 Bus1=460 Bus2=461 r1=0.07895 x1=0.02544
New Line.L461 Phases=1 Bus1=461 Bus2=462 r1=0.05762 x1=0.03216
New Line.L462 Phases=1 Bus1=461 Bus2=463 r1=0.02266 x1=0.007301
New Line.L463 Phases=1 Bus1=463 Bus2=464 r1=0.1555 x1=0.05011
New Line.L464 Phases=1 Bus1=464 Bus2=465 r1=0.006761 x1=0.003726
New Line.L465 Phases=1 Bus1=465 Bus2=466 r1=0.006404 x1=0.003529
New Line.L466 Phases=1 Bus1=466 Bus2=467 r1=0.03152 x1=0.01737
New Line.L467 Phases=1 Bus1=467 Bus2=468 r1=0.2009 x1=0.1107
New Line.L468 Phases=1 Bus1=468 Bus2=469 r1=0.2082 x1=0.1147
New Line.L469 Phases=1 Bus1=469 Bus2=470 r1=0.06544 x1=0.03606
New Line.L470 Phases=1 Bus1=470 Bus2=471 r1=0.08123 x1=0.04023
New Line.L471 Phases=1 Bus1=471 Bus2=472 r1=0.1429 x1=0.07975
New Line.L472 Phases=1 Bus1=472 Bus2=473 r1=0.08317 x1=0.04641
New Line.L473 Phases=1 Bus1=473 Bus2=474 r1=0.1189 x1=0.06636
New Line.L474 Phases=1 Bus1=474 Bus2=475 r1=0.09453 x1=0.05275
New Line.L475 Phases=1 Bus1=473 Bus2=476 r1=0.1261 x1=0.07035
New Line.L476 Phases=1 Bus1=473 Bus2=477 r1=0.09436 x1=0.05266
New Line.L477 Phases=1 Bus1=471 Bus2=478 r1=0.09962 x1=0.05538
New Line.L478 Phases=1 Bus1=478 Bus2=479 r1=0.09418 x1=0.0519
New Line.L479 Phases=1 Bus1=466 Bus2=480 r1=0.03737 x1=0.02086
New Line.L480 Phases=1 Bus1=480 Bus2=481 r1=0.01761 x1=0.009828
New Line.L481 Phases=1 Bus1=464 Bus2=482 r1=0.02339 x1=0.007536
New Line.L482 Phases=1 Bus1=482 Bus2=483 r1=0.03878 x1=0.01249
New Line.L483 Phases=1 Bus1=483 Bus2=484 r1=0.007048 x1=0.002271
New Line.L484 Phases=1 Bus1=484 Bus2=485 r1=0.001 x1=0.001
New Line.L485 Phases=1 Bus1=485 Bus2=486 r1=0.09861 x1=0.03177
New Line.L486 Phases=1 Bus1=486 Bus2=487 r1=0.1992 x1=0.06417