New object=circuit.ieee123
Edit "Vsource.source" bus1=1 pu=1.03 R0=0 X0=0.00000001 phases=1 basekv=2.4018 R1=0 X1=0.00000001

Redirect BranchData.dss
Redirect Capacitor.dss
Redirect Loads.dss
Redirect PVSystem_20_100_0.dss
Redirect Storage_31_100_0.dss

Set VoltageBases = [4.16]
Set mode = Daily 
Set stepsize = 1h
Set number = 1
