New load.S41P Bus=41.1 Phases=1 Model=1 kV=0.24 kW=0.831 kVAr=0.277 Vminpu=0.95 Vmaxpu=1.05 Daily=LoadShapeLoadDefault
New load.S42P Bus=42.1 Phases=1 Model=1 kV=0.24 kW=0.734 kVAr=0.245 Vminpu=0.95 Vmaxpu=1.05 Daily=LoadShapeLoadDefault
New load.S43P Bus=43.1 Phases=1 Model=1 kV=0.24 kW=0.691 kVAr=0.23 Vminpu=0.95 Vmaxpu=1.05 Daily=LoadShapeLoadDefault
New load.S44P Bus=44.1 Phases=1 Model=1 kV=0.24 kW=0.876 kVAr=0.292 Vminpu=0.95 Vmaxpu=1.05 Daily=LoadShapeLoadDefault
New load.S45P Bus=45.1 Phases=1 Model=1 kV=0.24 kW=0.912 kVAr=0.304 Vminpu=0.95 Vmaxpu=1.05 Daily=LoadShapeLoadDefault
New load.S46P Bus=46.1 Phases=1 Model=1 kV=0.24 kW=0.692 kVAr=0.231 Vminpu=0.95 Vmaxpu=1.05 Daily=LoadShapeLoadDefault
New load.S47P Bus=47.1 Phases=1 Model=1 kV=0.24 kW=0.792 kVAr=0.264 Vminpu=0.95 Vmaxpu=1.05 Daily=LoadShapeLoadDefault
New load.S48P Bus=48.1 Phases=1 Model=1 kV=0.24 kW=1.512 kVAr=0.504 Vminpu=0.95 Vmaxpu=1.05 Daily=LoadShapeLoadDefault
New load.S49P Bus=49.1 Phases=1 Model=1 kV=0.24 kW=1.25 kVAr=0.417 Vminpu=0.95 Vmaxpu=1.05 Daily=LoadShapeLoadDefault
New load.S50P Bus=50.1 Phases=1 Model=1 kV=0.24 kW=0.822 kVAr=0.274 Vminpu=0.95 Vmaxpu=1.05 Daily=LoadShapeLoadDefault
New load.S51P Bus=51.1 Phases=1 Model=1 kV=0.24 kW=0.843 kVAr=0.281 Vminpu=0.95 Vmaxpu=1.05 Daily=LoadShapeLoadDefault
New load.S52P Bus=52.1 Phases=1 Model=1 kV=0.24 kW=0.884 kVAr=0.295 Vminpu=0.95 Vmaxpu=1.05 Daily=LoadShapeLoadDefault
New load.S59P Bus=59.1 Phases=1 Model=1 kV=0.24 kW=1.038 kVAr=0.346 Vminpu=0.95 Vmaxpu=1.05 Daily=LoadShapeLoadDefault
New load.S60P Bus=60.1 Phases=1 Model=1 kV=0.24 kW=2.373 kVAr=0.791 Vminpu=0.95 Vmaxpu=1.05 Daily=LoadShapeLoadDefault
New load.S61P Bus=61.1 Phases=1 Model=1 kV=0.24 kW=1.51 kVAr=0.503 Vminpu=0.95 Vmaxpu=1.05 Daily=LoadShapeLoadDefault
New load.S62P Bus=62.1 Phases=1 Model=1 kV=0.24 kW=1.617 kVAr=0.539 Vminpu=0.95 Vmaxpu=1.05 Daily=LoadShapeLoadDefault
New load.S63P Bus=63.1 Phases=1 Model=1 kV=0.24 kW=1.894 kVAr=0.631 Vminpu=0.95 Vmaxpu=1.05 Daily=LoadShapeLoadDefault
New load.S64P Bus=64.1 Phases=1 Model=1 kV=0.24 kW=1.321 kVAr=0.44 Vminpu=0.95 Vmaxpu=1.05 Daily=LoadShapeLoadDefault
New load.S65P Bus=65.1 Phases=1 Model=1 kV=0.24 kW=2.586 kVAr=0.862 Vminpu=0.95 Vmaxpu=1.05 Daily=LoadShapeLoadDefault
New load.S66P Bus=66.1 Phases=1 Model=1 kV=0.24 kW=1.267 kVAr=0.422 Vminpu=0.95 Vmaxpu=1.05 Daily=LoadShapeLoadDefault
New load.S67P Bus=67.1 Phases=1 Model=1 kV=0.24 kW=1.275 kVAr=0.425 Vminpu=0.95 Vmaxpu=1.05 Daily=LoadShapeLoadDefault
New load.S68P Bus=68.1 Phases=1 Model=1 kV=0.24 kW=1.95 kVAr=0.65 Vminpu=0.95 Vmaxpu=1.05 Daily=LoadShapeLoadDefault
New load.S74P Bus=74.1 Phases=1 Model=1 kV=0.24 kW=2.034 kVAr=0.678 Vminpu=0.95 Vmaxpu=1.05 Daily=LoadShapeLoadDefault
New load.S75P Bus=75.1 Phases=1 Model=1 kV=0.24 kW=1.349 kVAr=0.45 Vminpu=0.95 Vmaxpu=1.05 Daily=LoadShapeLoadDefault
New load.S76P Bus=76.1 Phases=1 Model=1 kV=0.24 kW=1.679 kVAr=0.56 Vminpu=0.95 Vmaxpu=1.05 Daily=LoadShapeLoadDefault
New load.S77P Bus=77.1 Phases=1 Model=1 kV=0.24 kW=1.324 kVAr=0.441 Vminpu=0.95 Vmaxpu=1.05 Daily=LoadShapeLoadDefault
New load.S78P Bus=78.1 Phases=1 Model=1 kV=0.24 kW=1.377 kVAr=0.459 Vminpu=0.95 Vmaxpu=1.05 Daily=LoadShapeLoadDefault
New load.S79P Bus=79.1 Phases=1 Model=1 kV=0.24 kW=1.808 kVAr=0.603 Vminpu=0.95 Vmaxpu=1.05 Daily=LoadShapeLoadDefault
New load.S80P Bus=80.1 Phases=1 Model=1 kV=0.24 kW=2.042 kVAr=0.681 Vminpu=0.95 Vmaxpu=1.05 Daily=LoadShapeLoadDefault
New load.S81P Bus=81.1 Phases=1 Model=1 kV=0.24 kW=2.015 kVAr=0.672 Vminpu=0.95 Vmaxpu=1.05 Daily=LoadShapeLoadDefault
New load.S87P Bus=87.1 Phases=1 Model=1 kV=0.24 kW=1.387 kVAr=0.462 Vminpu=0.95 Vmaxpu=1.05 Daily=LoadShapeLoadDefault
New load.S88P Bus=88.1 Phases=1 Model=1 kV=0.24 kW=1.363 kVAr=0.454 Vminpu=0.95 Vmaxpu=1.05 Daily=LoadShapeLoadDefault
New load.S89P Bus=89.1 Phases=1 Model=1 kV=0.24 kW=1.301 kVAr=0.434 Vminpu=0.95 Vmaxpu=1.05 Daily=LoadShapeLoadDefault
New load.S90P Bus=90.1 Phases=1 Model=1 kV=0.24 kW=1.339 kVAr=0.446 Vminpu=0.95 Vmaxpu=1.05 Daily=LoadShapeLoadDefault
New load.S91P Bus=91.1 Phases=1 Model=1 kV=0.24 kW=1.376 kVAr=0.459 Vminpu=0.95 Vmaxpu=1.05 Daily=LoadShapeLoadDefault
New load.S92P Bus=92.1 Phases=1 Model=1 kV=0.24 kW=1.206 kVAr=0.402 Vminpu=0.95 Vmaxpu=1.05 Daily=LoadShapeLoadDefault
New load.S93P Bus=93.1 Phases=1 Model=1 kV=0.24 kW=1.384 kVAr=0.461 Vminpu=0.95 Vmaxpu=1.05 Daily=LoadShapeLoadDefault
New load.S94P Bus=94.1 Phases=1 Model=1 kV=0.24 kW=2.939 kVAr=0.98 Vminpu=0.95 Vmaxpu=1.05 Daily=LoadShapeLoadDefault
New load.S100P Bus=100.1 Phases=1 Model=1 kV=0.24 kW=0.983 kVAr=0.328 Vminpu=0.95 Vmaxpu=1.05 Daily=LoadShapeLoadDefault
New load.S101P Bus=101.1 Phases=1 Model=1 kV=0.24 kW=2.582 kVAr=0.861 Vminpu=0.95 Vmaxpu=1.05 Daily=LoadShapeLoadDefault
New load.S102P Bus=102.1 Phases=1 Model=1 kV=0.24 kW=2.168 kVAr=0.723 Vminpu=0.95 Vmaxpu=1.05 Daily=LoadShapeLoadDefault
New load.S103P Bus=103.1 Phases=1 Model=1 kV=0.24 kW=1.496 kVAr=0.499 Vminpu=0.95 Vmaxpu=1.05 Daily=LoadShapeLoadDefault
New load.S104P Bus=104.1 Phases=1 Model=1 kV=0.24 kW=1.57 kVAr=0.523 Vminpu=0.95 Vmaxpu=1.05 Daily=LoadShapeLoadDefault
New load.S105P Bus=105.1 Phases=1 Model=1 kV=0.24 kW=2.161 kVAr=0.72 Vminpu=0.95 Vmaxpu=1.05 Daily=LoadShapeLoadDefault
New load.S106P Bus=106.1 Phases=1 Model=1 kV=0.24 kW=2.857 kVAr=0.952 Vminpu=0.95 Vmaxpu=1.05 Daily=LoadShapeLoadDefault
New load.S107P Bus=107.1 Phases=1 Model=1 kV=0.24 kW=0.692 kVAr=0.231 Vminpu=0.95 Vmaxpu=1.05 Daily=LoadShapeLoadDefault
New load.S115P Bus=115.1 Phases=1 Model=1 kV=0.24 kW=1.561 kVAr=0.52 Vminpu=0.95 Vmaxpu=1.05 Daily=LoadShapeLoadDefault
New load.S116P Bus=116.1 Phases=1 Model=1 kV=0.24 kW=0.846 kVAr=0.282 Vminpu=0.95 Vmaxpu=1.05 Daily=LoadShapeLoadDefault
New load.S117P Bus=117.1 Phases=1 Model=1 kV=0.24 kW=0.795 kVAr=0.265 Vminpu=0.95 Vmaxpu=1.05 Daily=LoadShapeLoadDefault
New load.S118P Bus=118.1 Phases=1 Model=1 kV=0.24 kW=2.373 kVAr=0.791 Vminpu=0.95 Vmaxpu=1.05 Daily=LoadShapeLoadDefault
New load.S119P Bus=119.1 Phases=1 Model=1 kV=0.24 kW=2.066 kVAr=0.689 Vminpu=0.95 Vmaxpu=1.05 Daily=LoadShapeLoadDefault
New load.S120P Bus=120.1 Phases=1 Model=1 kV=0.24 kW=0.756 kVAr=0.252 Vminpu=0.95 Vmaxpu=1.05 Daily=LoadShapeLoadDefault
New load.S121P Bus=121.1 Phases=1 Model=1 kV=0.24 kW=0.7 kVAr=0.233 Vminpu=0.95 Vmaxpu=1.05 Daily=LoadShapeLoadDefault
New load.S122P Bus=122.1 Phases=1 Model=1 kV=0.24 kW=0.69 kVAr=0.23 Vminpu=0.95 Vmaxpu=1.05 Daily=LoadShapeLoadDefault
New load.S123P Bus=123.1 Phases=1 Model=1 kV=0.24 kW=0.983 kVAr=0.328 Vminpu=0.95 Vmaxpu=1.05 Daily=LoadShapeLoadDefault
New load.S124P Bus=124.1 Phases=1 Model=1 kV=0.24 kW=0.797 kVAr=0.266 Vminpu=0.95 Vmaxpu=1.05 Daily=LoadShapeLoadDefault
New load.S125P Bus=125.1 Phases=1 Model=1 kV=0.24 kW=1.345 kVAr=0.448 Vminpu=0.95 Vmaxpu=1.05 Daily=LoadShapeLoadDefault
New load.S126P Bus=126.1 Phases=1 Model=1 kV=0.24 kW=1.126 kVAr=0.375 Vminpu=0.95 Vmaxpu=1.05 Daily=LoadShapeLoadDefault
New load.S134P Bus=134.1 Phases=1 Model=1 kV=0.24 kW=1.55 kVAr=0.517 Vminpu=0.95 Vmaxpu=1.05 Daily=LoadShapeLoadDefault
New load.S135P Bus=135.1 Phases=1 Model=1 kV=0.24 kW=0.733 kVAr=0.244 Vminpu=0.95 Vmaxpu=1.05 Daily=LoadShapeLoadDefault
New load.S136P Bus=136.1 Phases=1 Model=1 kV=0.24 kW=0.897 kVAr=0.299 Vminpu=0.95 Vmaxpu=1.05 Daily=LoadShapeLoadDefault
New load.S137P Bus=137.1 Phases=1 Model=1 kV=0.24 kW=0.71 kVAr=0.237 Vminpu=0.95 Vmaxpu=1.05 Daily=LoadShapeLoadDefault
New load.S138P Bus=138.1 Phases=1 Model=1 kV=0.24 kW=0.895 kVAr=0.298 Vminpu=0.95 Vmaxpu=1.05 Daily=LoadShapeLoadDefault
New load.S139P Bus=139.1 Phases=1 Model=1 kV=0.24 kW=0.726 kVAr=0.242 Vminpu=0.95 Vmaxpu=1.05 Daily=LoadShapeLoadDefault
New load.S140P Bus=140.1 Phases=1 Model=1 kV=0.24 kW=0.646 kVAr=0.215 Vminpu=0.95 Vmaxpu=1.05 Daily=LoadShapeLoadDefault
New load.S141P Bus=141.1 Phases=1 Model=1 kV=0.24 kW=0.777 kVAr=0.259 Vminpu=0.95 Vmaxpu=1.05 Daily=LoadShapeLoadDefault
New load.S142P Bus=142.1 Phases=1 Model=1 kV=0.24 kW=0.845 kVAr=0.282 Vminpu=0.95 Vmaxpu=1.05 Daily=LoadShapeLoadDefault
New load.S143P Bus=143.1 Phases=1 Model=1 kV=0.24 kW=0.803 kVAr=0.268 Vminpu=0.95 Vmaxpu=1.05 Daily=LoadShapeLoadDefault
New load.S144P Bus=144.1 Phases=1 Model=1 kV=0.24 kW=0.952 kVAr=0.317 Vminpu=0.95 Vmaxpu=1.05 Daily=LoadShapeLoadDefault
New load.S145P Bus=145.1 Phases=1 Model=1 kV=0.24 kW=0.727 kVAr=0.242 Vminpu=0.95 Vmaxpu=1.05 Daily=LoadShapeLoadDefault
New load.S153P Bus=153.1 Phases=1 Model=1 kV=0.24 kW=0.673 kVAr=0.224 Vminpu=0.95 Vmaxpu=1.05 Daily=LoadShapeLoadDefault
New load.S154P Bus=154.1 Phases=1 Model=1 kV=0.24 kW=1.106 kVAr=0.369 Vminpu=0.95 Vmaxpu=1.05 Daily=LoadShapeLoadDefault
New load.S155P Bus=155.1 Phases=1 Model=1 kV=0.24 kW=1.4 kVAr=0.467 Vminpu=0.95 Vmaxpu=1.05 Daily=LoadShapeLoadDefault
New load.S156P Bus=156.1 Phases=1 Model=1 kV=0.24 kW=1.523 kVAr=0.508 Vminpu=0.95 Vmaxpu=1.05 Daily=LoadShapeLoadDefault
New load.S157P Bus=157.1 Phases=1 Model=1 kV=0.24 kW=2.151 kVAr=0.717 Vminpu=0.95 Vmaxpu=1.05 Daily=LoadShapeLoadDefault
New load.S158P Bus=158.1 Phases=1 Model=1 kV=0.24 kW=0.777 kVAr=0.259 Vminpu=0.95 Vmaxpu=1.05 Daily=LoadShapeLoadDefault
New load.S159P Bus=159.1 Phases=1 Model=1 kV=0.24 kW=0.723 kVAr=0.241 Vminpu=0.95 Vmaxpu=1.05 Daily=LoadShapeLoadDefault
New load.S160P Bus=160.1 Phases=1 Model=1 kV=0.24 kW=0.648 kVAr=0.216 Vminpu=0.95 Vmaxpu=1.05 Daily=LoadShapeLoadDefault
New load.S161P Bus=161.1 Phases=1 Model=1 kV=0.24 kW=0.698 kVAr=0.233 Vminpu=0.95 Vmaxpu=1.05 Daily=LoadShapeLoadDefault
New load.S162P Bus=162.1 Phases=1 Model=1 kV=0.24 kW=0.74 kVAr=0.247 Vminpu=0.95 Vmaxpu=1.05 Daily=LoadShapeLoadDefault
New load.S163P Bus=163.1 Phases=1 Model=1 kV=0.24 kW=0.892 kVAr=0.297 Vminpu=0.95 Vmaxpu=1.05 Daily=LoadShapeLoadDefault
New load.S164P Bus=164.1 Phases=1 Model=1 kV=0.24 kW=0.746 kVAr=0.249 Vminpu=0.95 Vmaxpu=1.05 Daily=LoadShapeLoadDefault
New load.S172P Bus=172.1 Phases=1 Model=1 kV=0.24 kW=1.269 kVAr=0.423 Vminpu=0.95 Vmaxpu=1.05 Daily=LoadShapeLoadDefault
New load.S173P Bus=173.1 Phases=1 Model=1 kV=0.24 kW=0.89 kVAr=0.297 Vminpu=0.95 Vmaxpu=1.05 Daily=LoadShapeLoadDefault
New load.S174P Bus=174.1 Phases=1 Model=1 kV=0.24 kW=1.491 kVAr=0.497 Vminpu=0.95 Vmaxpu=1.05 Daily=LoadShapeLoadDefault
New load.S175P Bus=175.1 Phases=1 Model=1 kV=0.24 kW=1.448 kVAr=0.483 Vminpu=0.95 Vmaxpu=1.05 Daily=LoadShapeLoadDefault
New load.S176P Bus=176.1 Phases=1 Model=1 kV=0.24 kW=0.828 kVAr=0.276 Vminpu=0.95 Vmaxpu=1.05 Daily=LoadShapeLoadDefault
New load.S177P Bus=177.1 Phases=1 Model=1 kV=0.24 kW=0.655 kVAr=0.218 Vminpu=0.95 Vmaxpu=1.05 Daily=LoadShapeLoadDefault
New load.S178P Bus=178.1 Phases=1 Model=1 kV=0.24 kW=0.637 kVAr=0.212 Vminpu=0.95 Vmaxpu=1.05 Daily=LoadShapeLoadDefault
New load.S179P Bus=179.1 Phases=1 Model=1 kV=0.24 kW=0.842 kVAr=0.281 Vminpu=0.95 Vmaxpu=1.05 Daily=LoadShapeLoadDefault
New load.S180P Bus=180.1 Phases=1 Model=1 kV=0.24 kW=1.145 kVAr=0.382 Vminpu=0.95 Vmaxpu=1.05 Daily=LoadShapeLoadDefault
New load.S181P Bus=181.1 Phases=1 Model=1 kV=0.24 kW=0.817 kVAr=0.272 Vminpu=0.95 Vmaxpu=1.05 Daily=LoadShapeLoadDefault
New load.S182P Bus=182.1 Phases=1 Model=1 kV=0.24 kW=0.928 kVAr=0.309 Vminpu=0.95 Vmaxpu=1.05 Daily=LoadShapeLoadDefault
New load.S183P Bus=183.1 Phases=1 Model=1 kV=0.24 kW=1.193 kVAr=0.398 Vminpu=0.95 Vmaxpu=1.05 Daily=LoadShapeLoadDefault
New load.S189P Bus=189.1 Phases=1 Model=1 kV=0.24 kW=0.777 kVAr=0.259 Vminpu=0.95 Vmaxpu=1.05 Daily=LoadShapeLoadDefault
New load.S190P Bus=190.1 Phases=1 Model=1 kV=0.24 kW=1.355 kVAr=0.452 Vminpu=0.95 Vmaxpu=1.05 Daily=LoadShapeLoadDefault
New load.S191P Bus=191.1 Phases=1 Model=1 kV=0.24 kW=0.936 kVAr=0.312 Vminpu=0.95 Vmaxpu=1.05 Daily=LoadShapeLoadDefault
New load.S192P Bus=192.1 Phases=1 Model=1 kV=0.24 kW=1.222 kVAr=0.407 Vminpu=0.95 Vmaxpu=1.05 Daily=LoadShapeLoadDefault
New load.S193P Bus=193.1 Phases=1 Model=1 kV=0.24 kW=1.83 kVAr=0.61 Vminpu=0.95 Vmaxpu=1.05 Daily=LoadShapeLoadDefault
New load.S194P Bus=194.1 Phases=1 Model=1 kV=0.24 kW=2.224 kVAr=0.741 Vminpu=0.95 Vmaxpu=1.05 Daily=LoadShapeLoadDefault
New load.S195P Bus=195.1 Phases=1 Model=1 kV=0.24 kW=2.01 kVAr=0.67 Vminpu=0.95 Vmaxpu=1.05 Daily=LoadShapeLoadDefault
New load.S196P Bus=196.1 Phases=1 Model=1 kV=0.24 kW=2.062 kVAr=0.687 Vminpu=0.95 Vmaxpu=1.05 Daily=LoadShapeLoadDefault
New load.S202P Bus=202.1 Phases=1 Model=1 kV=0.24 kW=2.19 kVAr=0.73 Vminpu=0.95 Vmaxpu=1.05 Daily=LoadShapeLoadDefault
New load.S203P Bus=203.1 Phases=1 Model=1 kV=0.24 kW=1.546 kVAr=0.515 Vminpu=0.95 Vmaxpu=1.05 Daily=LoadShapeLoadDefault
New load.S204P Bus=204.1 Phases=1 Model=1 kV=0.24 kW=1.869 kVAr=0.623 Vminpu=0.95 Vmaxpu=1.05 Daily=LoadShapeLoadDefault
New load.S205P Bus=205.1 Phases=1 Model=1 kV=0.24 kW=1.836 kVAr=0.612 Vminpu=0.95 Vmaxpu=1.05 Daily=LoadShapeLoadDefault
New load.S206P Bus=206.1 Phases=1 Model=1 kV=0.24 kW=2.157 kVAr=0.719 Vminpu=0.95 Vmaxpu=1.05 Daily=LoadShapeLoadDefault
New load.S207P Bus=207.1 Phases=1 Model=1 kV=0.24 kW=3.989 kVAr=1.33 Vminpu=0.95 Vmaxpu=1.05 Daily=LoadShapeLoadDefault
New load.S208P Bus=208.1 Phases=1 Model=1 kV=0.24 kW=1.725 kVAr=0.575 Vminpu=0.95 Vmaxpu=1.05 Daily=LoadShapeLoadDefault
New load.S209P Bus=209.1 Phases=1 Model=1 kV=0.24 kW=2.909 kVAr=0.97 Vminpu=0.95 Vmaxpu=1.05 Daily=LoadShapeLoadDefault
New load.S214P Bus=214.1 Phases=1 Model=1 kV=0.24 kW=1.315 kVAr=0.438 Vminpu=0.95 Vmaxpu=1.05 Daily=LoadShapeLoadDefault
New load.S215P Bus=215.1 Phases=1 Model=1 kV=0.24 kW=2.352 kVAr=0.784 Vminpu=0.95 Vmaxpu=1.05 Daily=LoadShapeLoadDefault
New load.S216P Bus=216.1 Phases=1 Model=1 kV=0.24 kW=2.155 kVAr=0.718 Vminpu=0.95 Vmaxpu=1.05 Daily=LoadShapeLoadDefault
New load.S217P Bus=217.1 Phases=1 Model=1 kV=0.24 kW=1.447 kVAr=0.482 Vminpu=0.95 Vmaxpu=1.05 Daily=LoadShapeLoadDefault
New load.S218P Bus=218.1 Phases=1 Model=1 kV=0.24 kW=2.026 kVAr=0.675 Vminpu=0.95 Vmaxpu=1.05 Daily=LoadShapeLoadDefault
New load.S219P Bus=219.1 Phases=1 Model=1 kV=0.24 kW=4.134 kVAr=1.378 Vminpu=0.95 Vmaxpu=1.05 Daily=LoadShapeLoadDefault
New load.S225P Bus=225.1 Phases=1 Model=1 kV=0.24 kW=3.099 kVAr=1.033 Vminpu=0.95 Vmaxpu=1.05 Daily=LoadShapeLoadDefault
New load.S226P Bus=226.1 Phases=1 Model=1 kV=0.24 kW=2.273 kVAr=0.758 Vminpu=0.95 Vmaxpu=1.05 Daily=LoadShapeLoadDefault
New load.S227P Bus=227.1 Phases=1 Model=1 kV=0.24 kW=1.443 kVAr=0.481 Vminpu=0.95 Vmaxpu=1.05 Daily=LoadShapeLoadDefault
New load.S228P Bus=228.1 Phases=1 Model=1 kV=0.24 kW=2.951 kVAr=0.984 Vminpu=0.95 Vmaxpu=1.05 Daily=LoadShapeLoadDefault
New load.S229P Bus=229.1 Phases=1 Model=1 kV=0.24 kW=3.967 kVAr=1.322 Vminpu=0.95 Vmaxpu=1.05 Daily=LoadShapeLoadDefault
New load.S230P Bus=230.1 Phases=1 Model=1 kV=0.24 kW=1.409 kVAr=0.47 Vminpu=0.95 Vmaxpu=1.05 Daily=LoadShapeLoadDefault
New load.S231P Bus=231.1 Phases=1 Model=1 kV=0.24 kW=2.062 kVAr=0.687 Vminpu=0.95 Vmaxpu=1.05 Daily=LoadShapeLoadDefault
New load.S232P Bus=232.1 Phases=1 Model=1 kV=0.24 kW=3.031 kVAr=1.01 Vminpu=0.95 Vmaxpu=1.05 Daily=LoadShapeLoadDefault
New load.S238P Bus=238.1 Phases=1 Model=1 kV=0.24 kW=2.664 kVAr=0.888 Vminpu=0.95 Vmaxpu=1.05 Daily=LoadShapeLoadDefault
New load.S239P Bus=239.1 Phases=1 Model=1 kV=0.24 kW=1.466 kVAr=0.489 Vminpu=0.95 Vmaxpu=1.05 Daily=LoadShapeLoadDefault
New load.S240P Bus=240.1 Phases=1 Model=1 kV=0.24 kW=2.223 kVAr=0.741 Vminpu=0.95 Vmaxpu=1.05 Daily=LoadShapeLoadDefault
New load.S241P Bus=241.1 Phases=1 Model=1 kV=0.24 kW=2.079 kVAr=0.693 Vminpu=0.95 Vmaxpu=1.05 Daily=LoadShapeLoadDefault
New load.S242P Bus=242.1 Phases=1 Model=1 kV=0.24 kW=1.315 kVAr=0.438 Vminpu=0.95 Vmaxpu=1.05 Daily=LoadShapeLoadDefault
New load.S243P Bus=243.1 Phases=1 Model=1 kV=0.24 kW=2.177 kVAr=0.726 Vminpu=0.95 Vmaxpu=1.05 Daily=LoadShapeLoadDefault
New load.S244P Bus=244.1 Phases=1 Model=1 kV=0.24 kW=2.777 kVAr=0.926 Vminpu=0.95 Vmaxpu=1.05 Daily=LoadShapeLoadDefault
New load.S245P Bus=245.1 Phases=1 Model=1 kV=0.24 kW=1.486 kVAr=0.495 Vminpu=0.95 Vmaxpu=1.05 Daily=LoadShapeLoadDefault
New load.S253P Bus=253.1 Phases=1 Model=1 kV=0.24 kW=1.411 kVAr=0.47 Vminpu=0.95 Vmaxpu=1.05 Daily=LoadShapeLoadDefault
New load.S254P Bus=254.1 Phases=1 Model=1 kV=0.24 kW=1.386 kVAr=0.462 Vminpu=0.95 Vmaxpu=1.05 Daily=LoadShapeLoadDefault
New load.S255P Bus=255.1 Phases=1 Model=1 kV=0.24 kW=1.289 kVAr=0.43 Vminpu=0.95 Vmaxpu=1.05 Daily=LoadShapeLoadDefault
New load.S256P Bus=256.1 Phases=1 Model=1 kV=0.24 kW=1.287 kVAr=0.429 Vminpu=0.95 Vmaxpu=1.05 Daily=LoadShapeLoadDefault
New load.S257P Bus=257.1 Phases=1 Model=1 kV=0.24 kW=1.98 kVAr=0.66 Vminpu=0.95 Vmaxpu=1.05 Daily=LoadShapeLoadDefault
New load.S258P Bus=258.1 Phases=1 Model=1 kV=0.24 kW=3.423 kVAr=1.141 Vminpu=0.95 Vmaxpu=1.05 Daily=LoadShapeLoadDefault
New load.S259P Bus=259.1 Phases=1 Model=1 kV=0.24 kW=2.317 kVAr=0.772 Vminpu=0.95 Vmaxpu=1.05 Daily=LoadShapeLoadDefault
New load.S260P Bus=260.1 Phases=1 Model=1 kV=0.24 kW=3.367 kVAr=1.122 Vminpu=0.95 Vmaxpu=1.05 Daily=LoadShapeLoadDefault
New load.S261P Bus=261.1 Phases=1 Model=1 kV=0.24 kW=2.302 kVAr=0.767 Vminpu=0.95 Vmaxpu=1.05 Daily=LoadShapeLoadDefault
New load.S262P Bus=262.1 Phases=1 Model=1 kV=0.24 kW=1.767 kVAr=0.589 Vminpu=0.95 Vmaxpu=1.05 Daily=LoadShapeLoadDefault
New load.S263P Bus=263.1 Phases=1 Model=1 kV=0.24 kW=1.389 kVAr=0.463 Vminpu=0.95 Vmaxpu=1.05 Daily=LoadShapeLoadDefault
New load.S264P Bus=264.1 Phases=1 Model=1 kV=0.24 kW=2.039 kVAr=0.68 Vminpu=0.95 Vmaxpu=1.05 Daily=LoadShapeLoadDefault
New load.S270P Bus=270.1 Phases=1 Model=1 kV=0.24 kW=3.28 kVAr=1.093 Vminpu=0.95 Vmaxpu=1.05 Daily=LoadShapeLoadDefault
New load.S271P Bus=271.1 Phases=1 Model=1 kV=0.24 kW=1.386 kVAr=0.462 Vminpu=0.95 Vmaxpu=1.05 Daily=LoadShapeLoadDefault
New load.S272P Bus=272.1 Phases=1 Model=1 kV=0.24 kW=1.575 kVAr=0.525 Vminpu=0.95 Vmaxpu=1.05 Daily=LoadShapeLoadDefault
New load.S273P Bus=273.1 Phases=1 Model=1 kV=0.24 kW=2.089 kVAr=0.696 Vminpu=0.95 Vmaxpu=1.05 Daily=LoadShapeLoadDefault
New load.S274P Bus=274.1 Phases=1 Model=1 kV=0.24 kW=3.388 kVAr=1.129 Vminpu=0.95 Vmaxpu=1.05 Daily=LoadShapeLoadDefault
New load.S275P Bus=275.1 Phases=1 Model=1 kV=0.24 kW=2.01 kVAr=0.67 Vminpu=0.95 Vmaxpu=1.05 Daily=LoadShapeLoadDefault
New load.S276P Bus=276.1 Phases=1 Model=1 kV=0.24 kW=2.254 kVAr=0.751 Vminpu=0.95 Vmaxpu=1.05 Daily=LoadShapeLoadDefault
New load.S277P Bus=277.1 Phases=1 Model=1 kV=0.24 kW=3.06 kVAr=1.02 Vminpu=0.95 Vmaxpu=1.05 Daily=LoadShapeLoadDefault
New load.S283P Bus=283.1 Phases=1 Model=1 kV=0.24 kW=2.319 kVAr=0.773 Vminpu=0.95 Vmaxpu=1.05 Daily=LoadShapeLoadDefault
New load.S284P Bus=284.1 Phases=1 Model=1 kV=0.24 kW=1.28 kVAr=0.427 Vminpu=0.95 Vmaxpu=1.05 Daily=LoadShapeLoadDefault
New load.S285P Bus=285.1 Phases=1 Model=1 kV=0.24 kW=1.786 kVAr=0.595 Vminpu=0.95 Vmaxpu=1.05 Daily=LoadShapeLoadDefault
New load.S286P Bus=286.1 Phases=1 Model=1 kV=0.24 kW=1.815 kVAr=0.605 Vminpu=0.95 Vmaxpu=1.05 Daily=LoadShapeLoadDefault
New load.S287P Bus=287.1 Phases=1 Model=1 kV=0.24 kW=1.378 kVAr=0.459 Vminpu=0.95 Vmaxpu=1.05 Daily=LoadShapeLoadDefault
New load.S288P Bus=288.1 Phases=1 Model=1 kV=0.24 kW=2.419 kVAr=0.806 Vminpu=0.95 Vmaxpu=1.05 Daily=LoadShapeLoadDefault
New load.S289P Bus=289.1 Phases=1 Model=1 kV=0.24 kW=2.786 kVAr=0.929 Vminpu=0.95 Vmaxpu=1.05 Daily=LoadShapeLoadDefault
New load.S290P Bus=290.1 Phases=1 Model=1 kV=0.24 kW=1.83 kVAr=0.61 Vminpu=0.95 Vmaxpu=1.05 Daily=LoadShapeLoadDefault
New load.S296P Bus=296.1 Phases=1 Model=1 kV=0.24 kW=1.586 kVAr=0.529 Vminpu=0.95 Vmaxpu=1.05 Daily=LoadShapeLoadDefault
New load.S297P Bus=297.1 Phases=1 Model=1 kV=0.24 kW=2.301 kVAr=0.767 Vminpu=0.95 Vmaxpu=1.05 Daily=LoadShapeLoadDefault
New load.S298P Bus=298.1 Phases=1 Model=1 kV=0.24 kW=2.391 kVAr=0.797 Vminpu=0.95 Vmaxpu=1.05 Daily=LoadShapeLoadDefault
New load.S299P Bus=299.1 Phases=1 Model=1 kV=0.24 kW=2.272 kVAr=0.757 Vminpu=0.95 Vmaxpu=1.05 Daily=LoadShapeLoadDefault
New load.S300P Bus=300.1 Phases=1 Model=1 kV=0.24 kW=2.189 kVAr=0.73 Vminpu=0.95 Vmaxpu=1.05 Daily=LoadShapeLoadDefault
New load.S301P Bus=301.1 Phases=1 Model=1 kV=0.24 kW=2.541 kVAr=0.847 Vminpu=0.95 Vmaxpu=1.05 Daily=LoadShapeLoadDefault
New load.S302P Bus=302.1 Phases=1 Model=1 kV=0.24 kW=2.664 kVAr=0.888 Vminpu=0.95 Vmaxpu=1.05 Daily=LoadShapeLoadDefault
New load.S303P Bus=303.1 Phases=1 Model=1 kV=0.24 kW=2.231 kVAr=0.744 Vminpu=0.95 Vmaxpu=1.05 Daily=LoadShapeLoadDefault
New load.S310P Bus=310.1 Phases=1 Model=1 kV=0.24 kW=1.753 kVAr=0.584 Vminpu=0.95 Vmaxpu=1.05 Daily=LoadShapeLoadDefault
New load.S311P Bus=311.1 Phases=1 Model=1 kV=0.24 kW=2.32 kVAr=0.773 Vminpu=0.95 Vmaxpu=1.05 Daily=LoadShapeLoadDefault
New load.S312P Bus=312.1 Phases=1 Model=1 kV=0.24 kW=2.793 kVAr=0.931 Vminpu=0.95 Vmaxpu=1.05 Daily=LoadShapeLoadDefault
New load.S313P Bus=313.1 Phases=1 Model=1 kV=0.24 kW=2.536 kVAr=0.845 Vminpu=0.95 Vmaxpu=1.05 Daily=LoadShapeLoadDefault
New load.S314P Bus=314.1 Phases=1 Model=1 kV=0.24 kW=3.724 kVAr=1.241 Vminpu=0.95 Vmaxpu=1.05 Daily=LoadShapeLoadDefault
New load.S315P Bus=315.1 Phases=1 Model=1 kV=0.24 kW=1.331 kVAr=0.444 Vminpu=0.95 Vmaxpu=1.05 Daily=LoadShapeLoadDefault
New load.S316P Bus=316.1 Phases=1 Model=1 kV=0.24 kW=1.379 kVAr=0.46 Vminpu=0.95 Vmaxpu=1.05 Daily=LoadShapeLoadDefault
New load.S317P Bus=317.1 Phases=1 Model=1 kV=0.24 kW=1.401 kVAr=0.467 Vminpu=0.95 Vmaxpu=1.05 Daily=LoadShapeLoadDefault
New load.S318P Bus=318.1 Phases=1 Model=1 kV=0.24 kW=4.182 kVAr=1.394 Vminpu=0.95 Vmaxpu=1.05 Daily=LoadShapeLoadDefault
New load.S319P Bus=319.1 Phases=1 Model=1 kV=0.24 kW=1.389 kVAr=0.463 Vminpu=0.95 Vmaxpu=1.05 Daily=LoadShapeLoadDefault
New load.S326P Bus=326.1 Phases=1 Model=1 kV=0.24 kW=1.97 kVAr=0.657 Vminpu=0.95 Vmaxpu=1.05 Daily=LoadShapeLoadDefault
New load.S327P Bus=327.1 Phases=1 Model=1 kV=0.24 kW=2.206 kVAr=0.735 Vminpu=0.95 Vmaxpu=1.05 Daily=LoadShapeLoadDefault
New load.S328P Bus=328.1 Phases=1 Model=1 kV=0.24 kW=1.269 kVAr=0.423 Vminpu=0.95 Vmaxpu=1.05 Daily=LoadShapeLoadDefault
New load.S329P Bus=329.1 Phases=1 Model=1 kV=0.24 kW=1.243 kVAr=0.414 Vminpu=0.95 Vmaxpu=1.05 Daily=LoadShapeLoadDefault
New load.S330P Bus=330.1 Phases=1 Model=1 kV=0.24 kW=2.621 kVAr=0.874 Vminpu=0.95 Vmaxpu=1.05 Daily=LoadShapeLoadDefault
New load.S331P Bus=331.1 Phases=1 Model=1 kV=0.24 kW=1.432 kVAr=0.477 Vminpu=0.95 Vmaxpu=1.05 Daily=LoadShapeLoadDefault
New load.S332P Bus=332.1 Phases=1 Model=1 kV=0.24 kW=2.155 kVAr=0.718 Vminpu=0.95 Vmaxpu=1.05 Daily=LoadShapeLoadDefault
New load.S333P Bus=333.1 Phases=1 Model=1 kV=0.24 kW=2.733 kVAr=0.911 Vminpu=0.95 Vmaxpu=1.05 Daily=LoadShapeLoadDefault
New load.S334P Bus=334.1 Phases=1 Model=1 kV=0.24 kW=3.823 kVAr=1.274 Vminpu=0.95 Vmaxpu=1.05 Daily=LoadShapeLoadDefault
New load.S335P Bus=335.1 Phases=1 Model=1 kV=0.24 kW=1.511 kVAr=0.504 Vminpu=0.95 Vmaxpu=1.05 Daily=LoadShapeLoadDefault
New load.S342P Bus=342.1 Phases=1 Model=1 kV=0.24 kW=2.559 kVAr=0.853 Vminpu=0.95 Vmaxpu=1.05 Daily=LoadShapeLoadDefault
New load.S343P Bus=343.1 Phases=1 Model=1 kV=0.24 kW=1.754 kVAr=0.585 Vminpu=0.95 Vmaxpu=1.05 Daily=LoadShapeLoadDefault
New load.S344P Bus=344.1 Phases=1 Model=1 kV=0.24 kW=1.742 kVAr=0.581 Vminpu=0.95 Vmaxpu=1.05 Daily=LoadShapeLoadDefault
New load.S345P Bus=345.1 Phases=1 Model=1 kV=0.24 kW=1.84 kVAr=0.613 Vminpu=0.95 Vmaxpu=1.05 Daily=LoadShapeLoadDefault
New load.S346P Bus=346.1 Phases=1 Model=1 kV=0.24 kW=2.172 kVAr=0.724 Vminpu=0.95 Vmaxpu=1.05 Daily=LoadShapeLoadDefault
New load.S347P Bus=347.1 Phases=1 Model=1 kV=0.24 kW=3.109 kVAr=1.036 Vminpu=0.95 Vmaxpu=1.05 Daily=LoadShapeLoadDefault
New load.S348P Bus=348.1 Phases=1 Model=1 kV=0.24 kW=1.279 kVAr=0.426 Vminpu=0.95 Vmaxpu=1.05 Daily=LoadShapeLoadDefault
New load.S349P Bus=349.1 Phases=1 Model=1 kV=0.24 kW=1.563 kVAr=0.521 Vminpu=0.95 Vmaxpu=1.05 Daily=LoadShapeLoadDefault
New load.S350P Bus=350.1 Phases=1 Model=1 kV=0.24 kW=2.528 kVAr=0.843 Vminpu=0.95 Vmaxpu=1.05 Daily=LoadShapeLoadDefault
New load.S351P Bus=351.1 Phases=1 Model=1 kV=0.24 kW=2.072 kVAr=0.691 Vminpu=0.95 Vmaxpu=1.05 Daily=LoadShapeLoadDefault
New load.S358P Bus=358.1 Phases=1 Model=1 kV=0.24 kW=2.523 kVAr=0.841 Vminpu=0.95 Vmaxpu=1.05 Daily=LoadShapeLoadDefault
New load.S359P Bus=359.1 Phases=1 Model=1 kV=0.24 kW=1.693 kVAr=0.564 Vminpu=0.95 Vmaxpu=1.05 Daily=LoadShapeLoadDefault
New load.S360P Bus=360.1 Phases=1 Model=1 kV=0.24 kW=3.222 kVAr=1.074 Vminpu=0.95 Vmaxpu=1.05 Daily=LoadShapeLoadDefault
New load.S361P Bus=361.1 Phases=1 Model=1 kV=0.24 kW=2.881 kVAr=0.96 Vminpu=0.95 Vmaxpu=1.05 Daily=LoadShapeLoadDefault
New load.S362P Bus=362.1 Phases=1 Model=1 kV=0.24 kW=1.79 kVAr=0.597 Vminpu=0.95 Vmaxpu=1.05 Daily=LoadShapeLoadDefault
New load.S363P Bus=363.1 Phases=1 Model=1 kV=0.24 kW=1.822 kVAr=0.607 Vminpu=0.95 Vmaxpu=1.05 Daily=LoadShapeLoadDefault
New load.S364P Bus=364.1 Phases=1 Model=1 kV=0.24 kW=2.363 kVAr=0.788 Vminpu=0.95 Vmaxpu=1.05 Daily=LoadShapeLoadDefault
New load.S365P Bus=365.1 Phases=1 Model=1 kV=0.24 kW=1.876 kVAr=0.625 Vminpu=0.95 Vmaxpu=1.05 Daily=LoadShapeLoadDefault
New load.S366P Bus=366.1 Phases=1 Model=1 kV=0.24 kW=2.774 kVAr=0.925 Vminpu=0.95 Vmaxpu=1.05 Daily=LoadShapeLoadDefault
New load.S367P Bus=367.1 Phases=1 Model=1 kV=0.24 kW=1.932 kVAr=0.644 Vminpu=0.95 Vmaxpu=1.05 Daily=LoadShapeLoadDefault
New load.S374P Bus=374.1 Phases=1 Model=1 kV=0.24 kW=2.815 kVAr=0.938 Vminpu=0.95 Vmaxpu=1.05 Daily=LoadShapeLoadDefault
New load.S375P Bus=375.1 Phases=1 Model=1 kV=0.24 kW=3.999 kVAr=1.333 Vminpu=0.95 Vmaxpu=1.05 Daily=LoadShapeLoadDefault
New load.S376P Bus=376.1 Phases=1 Model=1 kV=0.24 kW=8.499 kVAr=2.833 Vminpu=0.95 Vmaxpu=1.05 Daily=LoadShapeLoadDefault
New load.S377P Bus=377.1 Phases=1 Model=1 kV=0.24 kW=4.579 kVAr=1.526 Vminpu=0.95 Vmaxpu=1.05 Daily=LoadShapeLoadDefault
New load.S378P Bus=378.1 Phases=1 Model=1 kV=0.24 kW=4.416 kVAr=1.472 Vminpu=0.95 Vmaxpu=1.05 Daily=LoadShapeLoadDefault
New load.S379P Bus=379.1 Phases=1 Model=1 kV=0.24 kW=7.016 kVAr=2.339 Vminpu=0.95 Vmaxpu=1.05 Daily=LoadShapeLoadDefault
New load.S380P Bus=380.1 Phases=1 Model=1 kV=0.24 kW=5.175 kVAr=1.725 Vminpu=0.95 Vmaxpu=1.05 Daily=LoadShapeLoadDefault
New load.S381P Bus=381.1 Phases=1 Model=1 kV=0.24 kW=1.815 kVAr=0.605 Vminpu=0.95 Vmaxpu=1.05 Daily=LoadShapeLoadDefault
New load.S382P Bus=382.1 Phases=1 Model=1 kV=0.24 kW=1.859 kVAr=0.62 Vminpu=0.95 Vmaxpu=1.05 Daily=LoadShapeLoadDefault
New load.S383P Bus=383.1 Phases=1 Model=1 kV=0.24 kW=1.897 kVAr=0.632 Vminpu=0.95 Vmaxpu=1.05 Daily=LoadShapeLoadDefault
New load.S390P Bus=390.1 Phases=1 Model=1 kV=0.24 kW=2.638 kVAr=0.879 Vminpu=0.95 Vmaxpu=1.05 Daily=LoadShapeLoadDefault
New load.S391P Bus=391.1 Phases=1 Model=1 kV=0.24 kW=7.227 kVAr=2.409 Vminpu=0.95 Vmaxpu=1.05 Daily=LoadShapeLoadDefault
New load.S392P Bus=392.1 Phases=1 Model=1 kV=0.24 kW=1.685 kVAr=0.562 Vminpu=0.95 Vmaxpu=1.05 Daily=LoadShapeLoadDefault
New load.S393P Bus=393.1 Phases=1 Model=1 kV=0.24 kW=4.78 kVAr=1.593 Vminpu=0.95 Vmaxpu=1.05 Daily=LoadShapeLoadDefault
New load.S394P Bus=394.1 Phases=1 Model=1 kV=0.24 kW=4.217 kVAr=1.406 Vminpu=0.95 Vmaxpu=1.05 Daily=LoadShapeLoadDefault
New load.S395P Bus=395.1 Phases=1 Model=1 kV=0.24 kW=3.287 kVAr=1.096 Vminpu=0.95 Vmaxpu=1.05 Daily=LoadShapeLoadDefault
New load.S396P Bus=396.1 Phases=1 Model=1 kV=0.24 kW=4.081 kVAr=1.36 Vminpu=0.95 Vmaxpu=1.05 Daily=LoadShapeLoadDefault
New load.S397P Bus=397.1 Phases=1 Model=1 kV=0.24 kW=4.414 kVAr=1.471 Vminpu=0.95 Vmaxpu=1.05 Daily=LoadShapeLoadDefault
New load.S398P Bus=398.1 Phases=1 Model=1 kV=0.24 kW=2.545 kVAr=0.848 Vminpu=0.95 Vmaxpu=1.05 Daily=LoadShapeLoadDefault
New load.S399P Bus=399.1 Phases=1 Model=1 kV=0.24 kW=3.392 kVAr=1.131 Vminpu=0.95 Vmaxpu=1.05 Daily=LoadShapeLoadDefault
New load.S407P Bus=407.1 Phases=1 Model=1 kV=0.24 kW=2.171 kVAr=0.724 Vminpu=0.95 Vmaxpu=1.05 Daily=LoadShapeLoadDefault
New load.S408P Bus=408.1 Phases=1 Model=1 kV=0.24 kW=2.163 kVAr=0.721 Vminpu=0.95 Vmaxpu=1.05 Daily=LoadShapeLoadDefault
New load.S409P Bus=409.1 Phases=1 Model=1 kV=0.24 kW=1.374 kVAr=0.458 Vminpu=0.95 Vmaxpu=1.05 Daily=LoadShapeLoadDefault
New load.S410P Bus=410.1 Phases=1 Model=1 kV=0.24 kW=1.223 kVAr=0.408 Vminpu=0.95 Vmaxpu=1.05 Daily=LoadShapeLoadDefault
New load.S411P Bus=411.1 Phases=1 Model=1 kV=0.24 kW=1.108 kVAr=0.369 Vminpu=0.95 Vmaxpu=1.05 Daily=LoadShapeLoadDefault
New load.S412P Bus=412.1 Phases=1 Model=1 kV=0.24 kW=1.323 kVAr=0.441 Vminpu=0.95 Vmaxpu=1.05 Daily=LoadShapeLoadDefault
New load.S413P Bus=413.1 Phases=1 Model=1 kV=0.24 kW=1.024 kVAr=0.341 Vminpu=0.95 Vmaxpu=1.05 Daily=LoadShapeLoadDefault
New load.S414P Bus=414.1 Phases=1 Model=1 kV=0.24 kW=1.131 kVAr=0.377 Vminpu=0.95 Vmaxpu=1.05 Daily=LoadShapeLoadDefault
New load.S415P Bus=415.1 Phases=1 Model=1 kV=0.24 kW=0.74 kVAr=0.247 Vminpu=0.95 Vmaxpu=1.05 Daily=LoadShapeLoadDefault
New load.S416P Bus=416.1 Phases=1 Model=1 kV=0.24 kW=0.897 kVAr=0.299 Vminpu=0.95 Vmaxpu=1.05 Daily=LoadShapeLoadDefault
New load.S417P Bus=417.1 Phases=1 Model=1 kV=0.24 kW=1.671 kVAr=0.557 Vminpu=0.95 Vmaxpu=1.05 Daily=LoadShapeLoadDefault
New load.S418P Bus=418.1 Phases=1 Model=1 kV=0.24 kW=1.221 kVAr=0.407 Vminpu=0.95 Vmaxpu=1.05 Daily=LoadShapeLoadDefault
New load.S426P Bus=426.1 Phases=1 Model=1 kV=0.24 kW=0.977 kVAr=0.326 Vminpu=0.95 Vmaxpu=1.05 Daily=LoadShapeLoadDefault
New load.S427P Bus=427.1 Phases=1 Model=1 kV=0.24 kW=1.074 kVAr=0.358 Vminpu=0.95 Vmaxpu=1.05 Daily=LoadShapeLoadDefault
New load.S428P Bus=428.1 Phases=1 Model=1 kV=0.24 kW=1.027 kVAr=0.342 Vminpu=0.95 Vmaxpu=1.05 Daily=LoadShapeLoadDefault
New load.S429P Bus=429.1 Phases=1 Model=1 kV=0.24 kW=0.867 kVAr=0.289 Vminpu=0.95 Vmaxpu=1.05 Daily=LoadShapeLoadDefault
New load.S430P Bus=430.1 Phases=1 Model=1 kV=0.24 kW=1.305 kVAr=0.435 Vminpu=0.95 Vmaxpu=1.05 Daily=LoadShapeLoadDefault
New load.S431P Bus=431.1 Phases=1 Model=1 kV=0.24 kW=1.521 kVAr=0.507 Vminpu=0.95 Vmaxpu=1.05 Daily=LoadShapeLoadDefault
New load.S432P Bus=432.1 Phases=1 Model=1 kV=0.24 kW=1.79 kVAr=0.597 Vminpu=0.95 Vmaxpu=1.05 Daily=LoadShapeLoadDefault
New load.S433P Bus=433.1 Phases=1 Model=1 kV=0.24 kW=1.269 kVAr=0.423 Vminpu=0.95 Vmaxpu=1.05 Daily=LoadShapeLoadDefault
New load.S434P Bus=434.1 Phases=1 Model=1 kV=0.24 kW=0.857 kVAr=0.286 Vminpu=0.95 Vmaxpu=1.05 Daily=LoadShapeLoadDefault