New object=circuit.ieee730_1ph  
Edit "Vsource.source" bus1=1 pu=1.03 R0=0 X0=0.00000001 phases=1 basekv=12.66 R1=0 X1=0.00000001

Set VoltageBases = [21.9278, 0.416]
Set mode = Daily 
Set stepsize = 1h
Set number = 1