! Capacitor.dss
! Just like in an OpenDSS config
New generator.6C Phases=1 Bus1=6.1 kV=2.4018 Model=1 kW=1e-06 kVAr=20
