! BranchData.dss
! Just like in an OpenDSS config
New Line.L1 Phases= 1 Bus1=1 Bus2=2 r1=0.0174 x1=0.0356
New Line.L2 Phases= 1 Bus1=2 Bus2=3 r1=0.0232 x1=0.0475