New load.load1 Bus=1load Phases=1 Model=1 kV=11.547 kW=50000 pf=0.8 Vminpu=0.90 Vmaxpu=1.10