New load.load1 Bus=1load Phases=1 Model=1 kV=2.4018 kW=500 kVAr=425 Vminpu=0.00 Vmaxpu=1.10