! Loads.dss
! Just like in an OpenDSS config
! Specifying Loads as Model 1 and 2 type loads. For no CVR, Model 2 loads will be blank
New load.S2P Bus=2.1 Phases=1 Model=1 kV=2.4018 kW=133.33 kVAr=66.667 Vminpu=0.90 Vmaxpu=1.10 Daily = LoadShapeLoadDefault
New load.S3P Bus=3.1 Phases=1 Model=1 kV=2.4018 kW=133.33 kVAr=66.667 Vminpu=0.90 Vmaxpu=1.10 Daily = LoadShapeLoadDefault