! LoadShapePSubsCostDefault.dss
! Hourly price data for 24 hours
New Loadshape.LoadShapePSubsCostDefault npts=24 interval=1 mult=[0.04 0.05 0.05 0.05 0.05 0.06 0.06 0.05 0.05 0.05 0.05 0.06 0.06 0.06 0.06 0.06 0.10 0.12 0.20 0.30 0.15 0.11 0.07 0.06]

! Not actually being used in my actual OpenDSS verification script.