! LoadShapePSubsCostDefault.dss
! Hourly price data for 24 hours
New Loadshape.LoadShapePSubsCostDefault npts=24 interval=1 mult=[0.04 0.04 0.04 0.05 0.05 0.06 0.06 0.05 0.05 0.05 0.05 0.06 0.06 0.06 0.06 0.06 0.06 0.06 0.05 0.06 0.05 0.04 0.04 0.04]

! Not actually being used in my actual OpenDSS verification script.