! LoadShapePSubsCostDefault.dss
! Hourly price data for 24 hours
New Loadshape.LoadShapePSubsCostDefault npts=24 interval=1 mult = [0.04 0.05 0.05 0.05 0.05 0.06 0.06 0.05 0.05 0.05 0.05 0.06 0.06 0.06 0.06 0.06 0.10 0.12 0.20 0.30 0.15 0.11 0.07 0.06]
// New Loadshape.LoadShapePSubsCostDefault npts=24 interval=1 mult=[0.0574456 0.05483713 0.05151124 0.05006082 0.05122315 0.0557065 0.06778575 0.05182508 0.04820404 0.05194216 0.053936 0.05827748 0.06298602 0.07156314 0.07499522 0.08167511 0.10216021 0.122496 0.19593546 0.3018066 0.1526576 0.11244097 0.07090835 0.06594652]

! New Loadshape.LoadShapeCost npts =5 interval = 1 mult = [0.048204    0.048204     0.30181     0.30181    0.048204]
! Not actually being used in my actual OpenDSS verification script.