! A default 24 hour time-series of PV Irradiances from an OpenDSS example. You can generate scaled up/down versions from this for your own horizon duration T
New Loadshape.LoadShapePV npts=24 interval=1 mult=[0 0 0 0 0 0 0.1 0.2 0.3 0.5 0.8 0.9 1 1 0.99 0.9 0.7 0.4 0.1 0 0 0 0 0]
! New Loadshape.LoadShapePV npts =5 interval = 1 mult = [0.75       0.777       0.787       0.796       0.782]