! Two branches connecting POI1 and POI2 to the load bus
New Line.poi1 Bus1=1s Bus2=1load Phases=1 R1=0.025 X1=0.005
New Line.poi2 Bus1=2s Bus2=1load Phases=1 R1=0.025 X1=0.005